Alternative Transients Program (ATP),  GNU Linux or DOS.  All rights reserved by Can/Am user group of Portland, Oregon, USA.
 Date (dd-mth-yy) and time of day (hh.mm.ss) = 09-Feb-25  10:27:26   Name of disk plot file is  caso0_convenc_semcontrole.pl4
Consult the 860-page ATP Rule Book of the Can/Am EMTP User Group in Portland,  Oregon, USA.  Source code date is 19 December 2003.
Total size of LABCOM tables = 9872109 INTEGER words.  31 VARDIM  List Sizes follow:  6002  10K  192K  900  420K  1200  15K
  120K  2250  3800  720  1200  72800  510  90K  800  90  254  120K  100K  3K  15K  192K  120  30K  160K  600  210K  1K  19  200
--------------------------------------------------+--------------------------------------------------------------------------------
Descriptive interpretation of input data cards.   |  Input data card images are shown below, all 80 columns, character by character
                                                  0         1         2         3         4         5         6         7         8
                                                  012345678901234567890123456789012345678901234567890123456789012345678901234567890
--------------------------------------------------+--------------------------------------------------------------------------------
Comment card.   NUMDCD = 1.                       |C data:CASO0_CONVENC_SEMCONTROLE.ATP
Marker card preceding new EMTP data case.         |BEGIN NEW DATA CASE
Comment card.   NUMDCD = 3.                       |C --------------------------------------------------------
Comment card.   NUMDCD = 4.                       |C Generated by ATPDRAW  fevereiro, domingo 9, 2025
Comment card.   NUMDCD = 5.                       |C A Bonneville Power Administration program
Comment card.   NUMDCD = 6.                       |C by H. K. Høidalen at SEfAS/NTNU - NORWAY 1994-2009
Comment card.   NUMDCD = 7.                       |C --------------------------------------------------------
Comment card.   NUMDCD = 8.                       |C $DUMMY, XYZ000
Comment card.   NUMDCD = 9.                       |C  dT  >< Tmax >< Xopt >< Copt ><Epsiln>
Misc. data.     1.000E-06   2.000E-01   0.000E+00 |   1.E-6      .2
Misc. data.    500    1  0  0  1  0  0  1300  0   |     500       1       0       0       1       0       0       1     300
Statistics data.      1    1    0    0    1    0  |       1       1       0       0       1      -1                               0
Comment card.   NUMDCD = 13.                      |C        1         2         3         4         5         6         7         8
Comment card.   NUMDCD = 14.                      |C 345678901234567890123456789012345678901234567890123456789012345678901234567890
Comment card.   NUMDCD = 15.                      |C < n1 >< n2 ><ref1><ref2>< R  >< L  >< C  >
Comment card.   NUMDCD = 16.                      |C < n1 >< n2 ><ref1><ref2>< R  >< A  >< B  ><Leng><><>0
Series R-L-C.   5.000E+00  7.500E-02  0.000E+00   |  X0001AX0003A                5.   75.                                         0
Series R-L-C.   5.000E+00  7.500E-02  0.000E+00   |  X0001BX0003B                5.   75.                                         0
Series R-L-C.   5.000E+00  7.500E-02  0.000E+00   |  X0001CX0003C                5.   75.                                         0
Series R-L-C.   2.000E+02  0.000E+00  0.000E+00   |  X0003AX0001A              200.                                               0
Series R-L-C.   2.000E+02  0.000E+00  0.000E+00   |  X0003BX0001B              200.                                               0
Series R-L-C.   2.000E+02  0.000E+00  0.000E+00   |  X0003CX0001C              200.                                               0
Comment card.   NUMDCD = 23.                      |C 8 decadas = 10MHz - catalogo ALUBAR
Comment card.   NUMDCD = 24.                      |C $INCLUDE, C:\ATP\work\CONV.lib, X0002A, X0002B, X0002C, STDA##, STDB## $$
Comment card.   NUMDCD = 25.                      |C   , STDC##
J. Marti line, mode  1   parameters begin.        |-1X0002ASTDA                  2.  0.00              -2
J. Marti line, mode  2   parameters begin.        |-2X0002BSTDB                  2.  0.00              -2
J. Marti line, mode  3   parameters begin.        |-3X0002CSTDC                  2.  0.00              -2
Blank card ending branches.  IBR, NTOT = 9  13    |BLANK BRANCH
Comment card.   NUMDCD = 116.                     |C < n 1>< n 2>< Tclose ><Top/Tde ><   Ie   ><Vf/CLOP ><  type  >
Comment card.   NUMDCD = 117.                     |C ref.: 004 - Mestas - pg 2606
Comment card.   NUMDCD = 118.                     |C ref.: 004 - Mestas - pg 2606
Switch.   1.30E-02  1.00E-03  0.00E+00  0.00E+00  |  X0001BX0002B      .013      .001                    STATISTICS               0
Comment card.   NUMDCD = 120.                     |C ref.: 004 - Mestas - pg 2606
Comment card.   NUMDCD = 121.                     |C ref.: 004 - Mestas - pg 2606
Switch.   1.30E-02  1.00E-03  0.00E+00  0.00E+00  |  X0001AX0002A      .013      .001                    STATISTICS               0
Comment card.   NUMDCD = 123.                     |C ref.: 004 - Mestas - pg 2606
Comment card.   NUMDCD = 124.                     |C ref.: 004 - Mestas - pg 2606
Switch.   1.30E-02  1.00E-03  0.00E+00  0.00E+00  |  X0001CX0002C      .013      .001                    STATISTICS               0
Blank card ending switches.   KSWTCH = 3.         |BLANK SWITCH
Comment card.   NUMDCD = 127.                     |C < n 1><>< Ampl.  >< Freq.  ><Phase/T0><   A1   ><   T1   >< TSTART >< TSTOP  >
Source.   4.29E+05  6.00E+01  0.00E+00 -1.00E+00  |14X0003A  428660.705       60.                                     -1.      100.
Source.   4.29E+05  6.00E+01 -1.20E+02 -1.00E+00  |14X0003B  428660.705       60.     -120.                           -1.      100.
Source.   4.29E+05  6.00E+01 -2.40E+02 -1.00E+00  |14X0003C  428660.705       60.     -240.                           -1.      100.
Blank card ends electric sources.  KCONST = 3     |BLANK SOURCE
Pi-equivalent branches of distributed circuits are added to the table of List Size 3 between indices  7   and  12.
     Total network loss  P-loss  by summing injections =   7.705704393814E-23
Card of names for time-step loop output.          |  STDA  STDB  STDC
Card of names for time-step loop output.          |-5STDB  STDC  STDA  STDB  STDC  STDA
Blank card ending requests for output variables.  |BLANK OUTPUT
 
Column headings for the  6   EMTP output variables follow.  These are divided among the 5 possible classes as follows ....
  First  6     output variables are electric-network voltage differences (upper voltage minus lower voltage);
   Step      Time      STDA       STDB       STDC       STDB       STDA       STDC
                                                        STDC       STDB       STDA
      0       0.0         0.0        0.0        0.0        0.0        0.0        0.0
    500     .5E-3         0.0        0.0        0.0        0.0        0.0        0.0
   1000     .1E-2         0.0        0.0        0.0        0.0        0.0        0.0
   1500     .0015         0.0        0.0        0.0        0.0        0.0        0.0
   2000      .002         0.0        0.0        0.0        0.0        0.0        0.0
   2500     .0025         0.0        0.0        0.0        0.0        0.0        0.0
   3000      .003         0.0        0.0        0.0        0.0        0.0        0.0
   3500     .0035         0.0        0.0        0.0        0.0        0.0        0.0
   4000      .004         0.0        0.0        0.0        0.0        0.0        0.0
   4500     .0045         0.0        0.0        0.0        0.0        0.0        0.0
   5000      .005         0.0        0.0        0.0        0.0        0.0        0.0
   5500     .0055         0.0        0.0        0.0        0.0        0.0        0.0
   6000      .006         0.0        0.0        0.0        0.0        0.0        0.0
   6500     .0065         0.0        0.0        0.0        0.0        0.0        0.0
   7000      .007         0.0        0.0        0.0        0.0        0.0        0.0
   7500     .0075         0.0        0.0        0.0        0.0        0.0        0.0
   8000      .008         0.0        0.0        0.0        0.0        0.0        0.0
   8500     .0085         0.0        0.0        0.0        0.0        0.0        0.0
   9000      .009         0.0        0.0        0.0        0.0        0.0        0.0
   9500     .0095         0.0        0.0        0.0        0.0        0.0        0.0
  10000       .01         0.0        0.0        0.0        0.0        0.0        0.0
  10500     .0105         0.0        0.0        0.0        0.0        0.0        0.0
  11000      .011         0.0        0.0        0.0        0.0        0.0        0.0
  11500     .0115         0.0        0.0        0.0        0.0        0.0        0.0
  12000      .012         0.0        0.0        0.0        0.0        0.0        0.0
  12500     .0125         0.0        0.0        0.0        0.0        0.0        0.0
  13000      .013         0.0        0.0        0.0        0.0        0.0        0.0
 ***                                                             Close switch  "X0001B"  to  "X0002B"  after  1.30010000E-02  sec.
 ***                                                             Close switch  "X0001A"  to  "X0002A"  after  1.30010000E-02  sec.
 ***                                                             Close switch  "X0001C"  to  "X0002C"  after  1.30010000E-02  sec.
  13500     .0135   122948.66 -488887.46 365938.803 -854826.27 611836.123 242990.143
  14000      .014   261537.37 -668513.91 406976.543 -.107549E7 930051.283 145439.173
  14500     .0145  325363.223 -502561.79 177198.562 -679760.35 827925.009 -148164.66
  15000      .015  353757.284 -348036.52 -5720.7604 -342315.76 701793.807 -359478.04
  15500     .0155  386672.527  -315613.8 -71058.731 -244555.07 702286.323 -457731.26
  16000      .016  421797.045 -313472.72 -108324.32  -205148.4 735269.766 -530121.37
  16500     .0165  441194.647 -264507.61 -176687.03 -87820.582 705702.262 -617881.68
  17000      .017  438705.524  -178001.5 -260704.02 82702.5227 616707.024 -699409.55
  17500     .0175   418760.68 -88668.958 -330091.72 241422.764 507429.638  -748852.4
  18000      .018  385655.725 -8002.5047 -377653.22 369650.716  393658.23 -763308.95
  18500     .0185  340198.271  70091.395 -410289.67 480381.061 270106.876 -750487.94
  19000      .019  282521.664 149130.988 -431652.65 580783.639 133390.676 -714174.32
  19500     .0195  214285.539 225169.395 -439454.93 664624.329 -10883.856 -653740.47
  20000       .02  138326.875 292747.361 -431074.24 723821.596 -154420.49 -569401.11
  20500     .0205  57628.6517 348926.661 -406555.31 755481.973 -291298.01 -464183.96
  21000      .021  -25005.029 392564.286 -367559.26 760123.543 -417569.32 -342554.23
  21500     .0215  -106775.86 422617.575 -315841.72 738459.294 -529393.43 -209065.86
  22000      .022  -184812.01 437881.039 -253069.02 690950.063 -622693.05 -68257.011
  22500     .0225  -256309.36  437575.24 -181265.88  618841.12  -693884.6 75043.4786
  23000      .023   -318711.7 421679.749 -102968.05 524647.801 -740391.45 215743.646
  23500     .0235  -369815.06 390836.341 -21021.276 411857.617 -760651.41 348793.788
  24000      .024  -407820.23 346177.143 61643.0869 284534.056 -753997.37 469463.317
  24500     .0245  -431382.26 289268.597 142113.666 147154.931 -720650.86 573495.928
  25000      .025  -439662.79 222106.369 217556.418 4549.95198 -661769.16 657219.205
  25500     .0255  -432366.63 147068.414 285298.217  -138229.8 -579435.04 717664.848
  26000      .026    -409753. 66820.1722 342932.831 -276112.66 -476573.18 752685.834
  26500     .0265  -372623.95 -15792.498  388416.45 -404208.95 -356831.45 761040.401
  27000      .027  -322294.85 -97844.637 420139.486 -517984.12 -224450.21 742434.335
  27500     .0275   -260548.3 -176431.22 436979.513 -613410.73 -84117.078 697527.809
  28000      .028  -189571.55 -248768.26 438339.815 -687108.08 59196.7092 627911.368
  28500     .0285  -111879.09 -312292.55 424171.633 -736464.18 200413.461  536050.72
  29000      .029  -30223.269 -364753.47 394976.739 -759730.21   334530.2 425200.009
  29500     .0295  52503.1991 -404292.74 351789.541 -756082.28 456795.939 299286.342
  30000       .03  133369.723  -429509.8 296140.077 -725649.88 562879.523 162770.355
  30500     .0305  209511.575 -439511.31 229999.739 -669511.05 649022.888  20488.164
  31000      .031  278231.384 -433942.91  155711.53 -589654.44 712174.297 -122519.85
  31500     .0315  337094.709 -413001.85 75907.1384 -488908.99 750096.556 -261187.57
  32000      .032  384016.288 -377429.98  -6586.309 -370843.67 761446.268  -390602.6
  32500     .0325  417333.904 -328487.47 -88846.432 -239641.04 745821.376 -506180.34
  33000      .033  435867.263 -267908.14 -167959.13  -99949.01 703775.399 -603826.39
  33500     .0335   438959.81 -197838.02 -241121.79 43283.7694 636797.831  -680081.6
  34000      .034  426501.991 -120759.39  -305742.6 184983.207 547261.383 -732244.59
  34500     .0345  398935.129 -39402.802 -359532.33 320129.525 438337.931 -758467.46
  35000      .035  357235.795 43349.6516 -400585.45 443935.098 313886.143 -757821.24
  35500     .0355  302881.207 124566.422 -427447.63  552014.05 178314.785 -730328.84
  36000      .036  237796.904 201370.364 -439167.27 640537.633   36426.54 -676964.17
  36500     .0365   164288.53 271040.661 -435329.19 706369.852 -106752.13 -599617.72
  37000      .037  84960.1555 331109.207 -416069.36  747178.57 -246149.05 -501029.52
  37500     .0375  2622.02732 379448.044 -382070.07 761518.116 -376826.02  -384692.1
  38000      .038  -79808.985 414344.745 -334535.76 748880.505 -494153.73 -254726.77
  38500     .0385  -159412.72 434563.077 -275150.35 709713.431  -593975.8 -115737.63
  39000      .039  -233369.18 439386.794 -206017.61 645404.406 -672755.98 27351.5709
  39500     .0395  -299058.42 428645.015 -129586.59 558231.609 -727703.44 169471.827
  40000       .04  -354153.36 402718.272 -48564.909 451283.181 -756871.64 305588.455
  40500     .0405  -396702.25 362525.034 34177.2114 328347.822 -759227.28 430879.457
  41000      .041  -425197.75 309489.165 115708.585 193780.579 -734686.91 540906.335
  41500     .0415  -438630.41 245489.487 193140.923  52348.564  -684119.9 631771.334
  42000      .042  -436524.37 172793.222 263731.147 -90937.924 -609317.59 700255.515
  42500     .0425  -418954.23 93975.6706 324978.561 -231002.89  -512929.9 743932.793
  43000      .043  -386542.43 11828.9836 374713.447 -362884.46 -398371.41 761255.877
  43500     .0435  -340437.17 -70736.751 411173.921 -481910.67 -269700.42  751611.09
  44000      .044  -282271.75  -150796.6 433068.352 -583864.95 -131475.15 715340.102
  44500     .0445  -214106.71 -225514.41  439621.12 -665135.53 11407.6967 653727.832
  45000      .045  -138356.83 -292243.25  430600.09 -722843.34  153886.42 568956.925
  45500     .0455  -57705.597 -348619.24 406324.835 -754944.07 290913.642 464030.432
  46000      .046  24989.8927 -392645.21  367655.32 -760300.53 417635.105 342665.427
  46500     .0465  106800.104 -422761.53  315961.43 -738722.96 529561.639 209161.326
  47000      .047   184826.87 -437901.32 253074.449 -690975.77 622728.189 68247.5785
  47500     .0475  256306.054 -437528.23 181222.177 -618750.41 693834.285 -75083.876
  48000      .048  318705.469 -421655.49 102950.019 -524605.51 740360.957 -215755.45
  48500     .0485  369814.585 -390845.39  21030.804 -411876.19 760659.975 -348783.78
  % % % % % %   Suspended simulation;  plot data space exhausted;  SPY SPACE is required.   LIMBUF =  340000.
  % % % % % %   Suspended simulation;  plot data space exhausted;  SPY SPACE is required.   LIMBUF =  340000.
  +++  Time-sharing disabled.   Send  user-keyed interrupt to silence alarm.
   Current values.  INDBUF  INDBEG  LIMBUF  MFLUSH  NUMDCD  KCARD1  KCARD2
                    339998      50  340000    1000     134       1     138
Plot timespan now in memory (in sec) = 0.00000000E+00   4.85640000E-02
   ++++  Begin plot-data copy from memory to disk.   MFLUSH, INDBUF, N4, Tbeg,  Tend = 1001  339998       1  -1.00000E+00
1.00000E+19
SPY:  49000      .049  407822.838  -346189.4 -61633.439 -284555.96 754012.236 -469456.28
  49500     .0495  431383.764 -289269.48 -142114.29 -147155.19  720653.24 -573498.05
  50000       .05  439662.706 -222102.04 -217560.67 -4541.3717 661764.746 -657223.37
  50500     .0505   432366.38 -147066.53 -285299.85 138233.326 579432.907 -717666.23
  51000      .051  409753.261  -66821.11 -342932.15 276111.041 476574.371 -752685.41
  51500     .0515  372624.429 15791.4774 -388415.91 404207.384 356832.952 -761040.34
  52000      .052  322295.193 97844.6434 -420139.84  517984.48  224450.55 -742435.03
  52500     .0525   260548.49 176431.614  -436980.1 613411.718 84116.8767 -697528.59
  53000      .053  189571.729 248768.406 -438340.13  687108.54 -59196.677 -627911.86
  53500     .0535  111879.296 312292.452 -424171.75   736464.2 -200413.16 -536051.04
  54000      .054  30223.4849 364753.382 -394976.87  759730.25  -334529.9 -425200.35
  54500     .0545  -52503.007 404292.742 -351789.73 756082.477 -456795.75 -299286.73
  55000      .055  -133369.55 429509.829 -296140.28 725650.105 -562879.38 -162770.72
  55500     .0555  -209511.41 439511.315  -229999.9 669511.218 -649022.73  -20488.49
  56000      .056  -278231.23 433942.894 -155711.67 589654.562 -712174.12 122519.558
  56500     .0565  -337094.56 413001.829 -75907.271   488909.1 -750096.39 261187.286
  57000      .057  -384016.14 377429.967 6586.17759  370843.79 -761446.11 390602.322
  57500     .0575  -417333.77  328487.46 88846.3068 239641.154 -745821.23 506180.074
  58000      .058  -435867.13 267908.121  167959.01 99949.1108 -703775.25 603826.142
  58500     .0585  -438959.68 197838.003 241121.681 -43283.679 -636797.69 680081.365
  59000      .059  -426501.87 120759.374 305742.495 -184983.12 -547261.24 732244.364
  59500     .0595  -398935.01 39402.7832 359532.228 -320129.45 -438337.79  758467.24
  60000       .06  -357235.68 -43349.671 400585.352 -443935.02 -313886.01 757821.032
  60500     .0605   -302881.1 -124566.44 427447.538 -552013.98 -178314.65 730328.634
  61000      .061   -237796.8 -201370.39 439167.182 -640537.57 -36426.411 676963.978
  61500     .0615  -164288.42 -271040.68 435329.108 -706369.79 106752.258 599617.533
  62000      .062  -84960.053 -331109.23 416069.282 -747178.51 246149.177 501029.335
  62500     .0625  -2621.9265 -379448.07 382069.994 -761518.06 376826.141  384691.92
  63000      .063  79809.0842 -414344.77 334535.685 -748880.45 494153.853   254726.6
  63500     .0635   159412.82  -434563.1 275150.281 -709713.38  593975.92 115737.461
  64000      .064  233369.278 -439386.82  206017.54 -645404.36 672756.097 -27351.738
  64500     .0645  299058.515 -428645.04 129586.525 -558231.56 727703.555 -169471.99
  65000      .065  354153.457  -402718.3 48564.8405 -451283.14 756871.754 -305588.62
  65500     .0655  396702.337 -362525.06 -34177.278 -328347.78 759227.397 -430879.62
  66000      .066  425197.841 -309489.19 -115708.65 -193780.54 734687.032 -540906.49
  66500     .0665  438630.501 -245489.51 -193140.99 -52348.526 684120.015 -631771.49
  67000      .067  436524.459 -172793.25 -263731.21 90937.9614 609317.707 -700255.67
  67500     .0675  418954.321 -93975.697 -324978.62 231002.926 512930.018 -743932.94
  68000      .068  386542.519 -11829.011 -374713.51 362884.498  398371.53 -761256.03
  68500     .0685  340437.257 70736.7242 -411173.98 481910.706 269700.533 -751611.24
  69000      .069  282271.838 150796.575 -433068.41 583864.987 131475.263 -715340.25
  69500     .0695  214106.799 225514.381 -439621.18 665135.561 -11407.582 -653727.98
  70000       .07  138356.922 292243.227 -430600.15 722843.376  -153886.3 -568957.07
  70500     .0705  57705.6836 348619.211 -406324.89 754944.105 -290913.53 -464030.58
  71000      .071  -24989.806 392645.184 -367655.38 760300.563 -417634.99 -342665.57
  71500     .0715  -106800.02 422761.506 -315961.49 738722.995 -529561.52 -209161.47
  72000      .072  -184826.78  437901.29 -253074.51 690975.797 -622728.07 -68247.723
  72500     .0725  -256305.97 437528.202 -181222.24 618750.438 -693834.17 75083.7317
  73000      .073  -318705.38 421655.459 -102950.08 524605.536 -740360.84 215755.306
  73500     .0735   -369814.5 390845.361 -21030.862 411876.222 -760659.86 348783.637
  74000      .074  -407822.75  346189.37 61633.3812 284555.989 -754012.12 469456.132
  74500     .0745  -431383.68 289269.447  142114.23 147155.218 -720653.12 573497.907
  75000      .075  -439662.62  222102.01  217560.61 4541.40009 -661764.63  657223.23
  75500     .0755  -432366.29 147066.498 285299.796  -138233.3 -579432.79 717666.089
  76000      .076  -409753.17 66821.0808 342932.093 -276111.01 -476574.25 752685.267
  76500     .0765  -372624.34 -15791.507 388415.849 -404207.36 -356832.84 761040.192
  77000      .077  -322295.11 -97844.673 420139.779 -517984.45 -224450.43 742434.885
  77500     .0775   -260548.4 -176431.64 436980.047 -613411.69  -84116.76  697528.45
  78000      .078  -189571.64 -248768.44 438340.077 -687108.51  59196.793 627911.719
  78500     .0785  -111879.21 -312292.48 424171.691 -736464.17 200413.273   536050.9
  79000      .079  -30223.398 -364753.41  394976.81 -759730.22 334530.014 425200.207
  79500     .0795  52503.0942 -404292.77 351789.677 -756082.45 456795.866 299286.583
  80000       .08  133369.639 -429509.86 296140.219 -725650.08 562879.498  162770.58
  80500     .0805    209511.5 -439511.35 229999.845 -669511.19 649022.845 20488.3446
  81000      .081  278231.313 -433942.92  155711.61 -589654.53 712174.237  -122519.7
  81500     .0815  337094.645 -413001.86 75907.2134 -488909.07 750096.504 -261187.43
  82000      .082  384016.233   -377430. -6586.2356 -370843.76  761446.23 -390602.47
  82500     .0825  417333.855 -328487.49 -88846.365 -239641.13 745821.346 -506180.22
  83000      .083   435867.22 -267908.15 -167959.07 -99949.083 703775.371 -603826.29
  83500     .0835  438959.772 -197838.03 -241121.74 43283.7068 636797.805 -680081.51
  84000      .084  426501.957  -120759.4 -305742.55  184983.15 547261.361 -732244.51
  84500     .0845    398935.1 -39402.813 -359532.29 320129.473 438337.913 -758467.39
  85000      .085  357235.769  43349.641 -400585.41 443935.051 313886.128 -757821.18
  85500     .0855  302881.185 124566.412  -427447.6 552014.009 178314.773 -730328.78
  86000      .086  237796.885 201370.355 -439167.24 640537.596 36426.5295 -676964.13
  86500     .0865  164288.514 271040.653 -435329.17 706369.819 -106752.14 -599617.68
  87000      .087  84960.1414   331109.2 -416069.34 747178.541 -246149.06 -501029.48
  87500     .0875  2622.01543 379448.037 -382070.05  761518.09 -376826.02 -384692.07
  88000      .088  -79808.995 414344.739 -334535.74 748880.482 -494153.73 -254726.75
  88500     .0885  -159412.73 434563.071 -275150.34  709713.41  -593975.8 -115737.61
  89000      .089  -233369.19 439386.788  -206017.6 645404.388 -672755.98 27351.5898
  89500     .0895  -299058.43  428645.01 -129586.58 558231.593 -727703.44 169471.842
  90000       .09  -354153.37 402718.267   -48564.9 451283.167 -756871.64 305588.468
  90500     .0905  -396702.25 362525.029 34177.2189  328347.81 -759227.28 430879.467
  91000      .091  -425197.75  309489.16 115708.591 193780.569 -734686.91 540906.343
  91500     .0915  -438630.41 245489.483 193140.928  52348.555  -684119.9  631771.34
  92000      .092  -436524.37 172793.218 263731.151 -90937.932 -609317.59  700255.52
  92500     .0925  -418954.23 93975.6672 324978.564  -231002.9  -512929.9 743932.796
  93000      .093  -386542.43 11828.9805 374713.449 -362884.47 -398371.41 761255.879
  93500     .0935  -340437.17 -70736.754 411173.922 -481910.68 -269700.41  751611.09
  94000      .094  -282271.75  -150796.6 433068.353 -583864.96 -131475.14 715340.101
  94500     .0945  -214106.71 -225514.41 439621.121 -665135.53 11407.7011  653727.83
  95000      .095  -138356.83 -292243.26  430600.09 -722843.35 153886.424 568956.922
  95500     .0955  -57705.594 -348619.24 406324.835 -754944.08 290913.646 464030.429
  96000      .096  24989.8954 -392645.21 367655.319 -760300.53  417635.11 342665.424
  96500     .0965  106800.107 -422761.54 315961.429 -738722.97 529561.643 209161.322
  97000      .097  184826.873 -437901.32 253074.447 -690975.77 622728.193 68247.5742
  % % % % % %   Suspended simulation;  plot data space exhausted;  SPY SPACE is required.   LIMBUF =  340000.
  % % % % % %   Suspended simulation;  plot data space exhausted;  SPY SPACE is required.   LIMBUF =  340000.
  +++  Time-sharing disabled.   Send  user-keyed interrupt to silence alarm.
   Current values.  INDBUF  INDBEG  LIMBUF  MFLUSH  NUMDCD  KCARD1  KCARD2
                    339998      50  340000    1001     134       1     138
Plot timespan now in memory (in sec) = 4.85629998E-02   9.71270000E-02
   ++++  Begin plot-data copy from memory to disk.   MFLUSH, INDBUF, N4, Tbeg,  Tend = 1002  339998       1  -1.00000E+00
1.00000E+19
SPY:  97500     .0975  256306.057 -437528.23 181222.176 -618750.41 693834.289 -75083.881
  98000      .098  318705.472 -421655.49 102950.017 -524605.51 740360.961 -215755.45
  98500     .0985  369814.588 -390845.39  21030.802 -411876.19 760659.979 -348783.79
  99000      .099   407822.84  -346189.4 -61633.441 -284555.96  754012.24 -469456.28
  99500     .0995  431383.767 -289269.48 -142114.29 -147155.19 720653.244 -573498.06
 100000       0.1  439662.709 -222102.04 -217560.67   -4541.37 661764.749 -657223.38
 100500     .1005  432366.383 -147066.53 -285299.86 138233.328  579432.91 -717666.24
 101000      .101  409753.263  -66821.11 -342932.15 276111.043 476574.373 -752685.42
 101500     .1015  372624.431 15791.4773 -388415.91 404207.386 356832.954 -761040.34
 102000      .102  322295.195 97844.6434 -420139.84 517984.482 224450.552 -742435.03
 102500     .1025  260548.492 176431.614 -436980.11  613411.72 84116.8785  -697528.6
 103000      .103  189571.731 248768.406 -438340.14 687108.542 -59196.675 -627911.87
 103500     .1035  111879.298 312292.452 -424171.75 736464.203 -200413.15 -536051.05
 104000      .104  30223.4863 364753.383 -394976.87 759730.252  -334529.9 -425200.36
 104500     .1045  -52503.006 404292.742 -351789.74 756082.479 -456795.75 -299286.73
 105000      .105  -133369.55 429509.829 -296140.28 725650.108 -562879.38 -162770.73
 105500     .1055  -209511.41 439511.316  -229999.9  669511.22 -649022.73 -20488.492
 106000      .106  -278231.23 433942.895 -155711.67 589654.564 -712174.12 122519.556
 106500     .1065  -337094.56  413001.83 -75907.273 488909.102 -750096.39 261187.284
 107000      .107  -384016.14 377429.968 6586.17644 370843.792 -761446.11 390602.321
 107500     .1075  -417333.77 328487.462 88846.3058 239641.156 -745821.23 506180.073
 108000      .108  -435867.13 267908.122  167959.01 99949.1129 -703775.25 603826.141
 108500     .1085  -438959.68 197838.004 241121.681 -43283.677 -636797.69 680081.365
 109000      .109  -426501.87 120759.375 305742.495 -184983.12 -547261.24 732244.365
 109500     .1095  -398935.01 39402.7846 359532.228 -320129.44  -438337.8  758467.24
 110000       .11  -357235.68  -43349.67 400585.351 -443935.02 -313886.01 757821.033
 110500     .1105   -302881.1 -124566.44 427447.538 -552013.98 -178314.66 730328.636
 111000      .111   -237796.8 -201370.38 439167.182 -640537.57 -36426.414  676963.98
 111500     .1115  -164288.43 -271040.68 435329.108 -706369.79 106752.254 599617.535
 112000      .112  -84960.055 -331109.23 416069.283 -747178.51 246149.173 501029.337
 112500     .1125  -2621.9289 -379448.07 382069.994 -761518.06 376826.137 384691.923
 113000      .113  79809.0815 -414344.77 334535.685 -748880.45 494153.848 254726.604
 113500     .1135  159412.817  -434563.1 275150.282 -709713.38 593975.915 115737.465
 114000      .114  233369.275 -439386.82 206017.541 -645404.36 672756.091 -27351.734
 114500     .1145  299058.512 -428645.04 129586.526 -558231.56  727703.55 -169471.99
 115000      .115  354153.453  -402718.3 48564.8419 -451283.14 756871.749 -305588.61
 115500     .1155  396702.333 -362525.06 -34177.277 -328347.78  759227.39 -430879.61
 116000      .116  425197.837 -309489.19 -115708.65 -193780.54 734687.025 -540906.49
 116500     .1165  438630.497 -245489.51 -193140.99 -52348.525 684120.008 -631771.48
 117000      .117  436524.454 -172793.25 -263731.21  90937.962   609317.7 -700255.66
 117500     .1175  418954.316 -93975.695 -324978.62 231002.927 512930.011 -743932.94
 118000      .118  386542.514 -11829.008 -374713.51 362884.498 398371.522 -761256.02
 118500     .1185  340437.252  70736.727 -411173.98 481910.706 269700.525 -751611.23
 119000      .119  282271.833 150796.578 -433068.41 583864.988 131475.255 -715340.24
 119500     .1195  214106.794 225514.384 -439621.18 665135.561  -11407.59 -653727.97
 120000       .12  138356.916  292243.23 -430600.15 722843.376 -153886.31 -568957.06
 120500     .1205  57705.6777 348619.214 -406324.89 754944.105 -290913.54 -464030.57
 121000      .121  -24989.812 392645.187 -367655.38 760300.563   -417635. -342665.56
 121500     .1215  -106800.02 422761.509 -315961.49 738722.995 -529561.53 -209161.46
 122000      .122  -184826.79 437901.293  -253074.5 690975.797 -622728.08 -68247.713
 122500     .1225  -256305.97 437528.206 -181222.23 618750.437 -693834.18  75083.742
 123000      .123  -318705.39 421655.462 -102950.07 524605.536 -740360.85 215755.316
 123500     .1235  -369814.51 390845.364 -21030.858 411876.222 -760659.87 348783.648
 124000      .124  -407822.76 346189.373 61633.3852 284555.988 -754012.13 469456.143
 124500     .1245  -431383.68 289269.451 142114.234 147155.217 -720653.14 573497.919
 125000      .125  -439662.63 222102.013 217560.614 4541.39919 -661764.64 657223.242
 125500     .1255   -432366.3 147066.501   285299.8  -138233.3  -579432.8 717666.101
 126000      .126  -409753.18 66821.0842 342932.098 -276111.01 -476574.27  752685.28
 126500     .1265  -372624.35 -15791.503 388415.854 -404207.36 -356832.85 761040.204
 127000      .127  -322295.11 -97844.669 420139.784 -517984.45 -224450.44 742434.898
 127500     .1275  -260548.41 -176431.64 436980.051 -613411.69 -84116.772 697528.463
 128000      .128  -189571.65 -248768.43 438340.082 -687108.51  59196.781 627911.733
 128500     .1285  -111879.22 -312292.48 424171.696 -736464.17  200413.26 536050.913
 129000      .129  -30223.406 -364753.41 394976.815 -759730.22 334530.002 425200.221
 129500     .1295  52503.0853 -404292.77 351789.683 -756082.45 456795.853 299286.597
 130000       .13   133369.63 -429509.85 296140.224 -725650.08 562879.485 162770.594
 130500     .1305  209511.491 -439511.34  229999.85 -669511.19 649022.832 20488.3592
 131000      .131  278231.304 -433942.92 155711.616 -589654.54 712174.224 -122519.69
 131500     .1315  337094.636 -413001.85  75907.219 -488909.07  750096.49 -261187.42
 132000      .132  384016.223 -377429.99 -6586.2298 -370843.76 761446.216 -390602.45
 132500     .1325  417333.846 -328487.49 -88846.359 -239641.13 745821.332  -506180.2
 133000      .133   435867.21 -267908.15 -167959.06 -99949.085 703775.357 -603826.27
 133500     .1335  438959.762 -197838.03 -241121.73 43283.7047 636797.791  -680081.5
 134000      .134  426501.947  -120759.4 -305742.55 184983.148 547261.347 -732244.49
 134500     .1345   398935.09 -39402.809 -359532.28 320129.471 438337.899 -758467.37
 135000      .135  357235.759  43349.645  -400585.4 443935.049 313886.114 -757821.16
 135500     .1355  302881.174 124566.416 -427447.59 552014.006 178314.758 -730328.76
 136000      .136  237796.874 201370.359 -439167.23 640537.593  36426.515 -676964.11
 136500     .1365  164288.503 271040.657 -435329.16 706369.817 -106752.15 -599617.66
 137000      .137  84960.1307 331109.204 -416069.33 747178.538 -246149.07 -501029.47
 137500     .1375  2622.00463 379448.041 -382070.05 761518.088 -376826.04 -384692.05
 138000      .138  -79809.006 414344.743 -334535.74  748880.48 -494153.75 -254726.73
 138500     .1385  -159412.74 434563.075 -275150.33 709713.408 -593975.82 -115737.59
 139000      .139   -233369.2 439386.793 -206017.59 645404.385 -672755.99 27351.6079
 139500     .1395  -299058.44 428645.014 -129586.58 558231.591 -727703.45 169471.861
 140000       .14  -354153.38 402718.272 -48564.893 451283.164 -756871.65 305588.486
 140500     .1405  -396702.26 362525.033 34177.2261 328347.807 -759227.29 430879.485
 141000      .141  -425197.76 309489.165 115708.599 193780.566 -734686.93 540906.362
 141500     .1415  -438630.42 245489.488 193140.936 52348.5519 -684119.91 631771.359
 142000      .142  -436524.38 172793.223 263731.158 -90937.935  -609317.6 700255.539
 142500     .1425  -418954.24 93975.6714 324978.572  -231002.9 -512929.91 743932.815
 143000      .143  -386542.44 11828.9848 374713.457 -362884.47 -398371.43 761255.898
 143500     .1435  -340437.18  -70736.75  411173.93 -481910.68 -269700.43  751611.11
 144000      .144  -282271.76  -150796.6 433068.361 -583864.96 -131475.16 715340.121
 144500     .1445  -214106.72 -225514.41 439621.128 -665135.53 11407.6848  653727.85
 145000      .145  -138356.84 -292243.25 430600.097 -722843.35 153886.408 568956.942
 145500     .1455  -57705.606 -348619.24 406324.842 -754944.08  290913.63 464030.449
  % % % % % %   Suspended simulation;  plot data space exhausted;  SPY SPACE is required.   LIMBUF =  340000.
  % % % % % %   Suspended simulation;  plot data space exhausted;  SPY SPACE is required.   LIMBUF =  340000.
  +++  Time-sharing disabled.   Send  user-keyed interrupt to silence alarm.
   Current values.  INDBUF  INDBEG  LIMBUF  MFLUSH  NUMDCD  KCARD1  KCARD2
                    339998      50  340000    1002     134       1     138
Plot timespan now in memory (in sec) = 9.71259996E-02   1.45690000E-01
   ++++  Begin plot-data copy from memory to disk.   MFLUSH, INDBUF, N4, Tbeg,  Tend = 1003  339998       1  -1.00000E+00
1.00000E+19
SPY: 146000      .146  24989.8832 -392645.21 367655.327 -760300.54 417635.093 342665.444
 146500     .1465  106800.095 -422761.53 315961.437 -738722.97 529561.626 209161.342
 147000      .147  184826.861 -437901.32 253074.455 -690975.77 622728.177 68247.5943
 147500     .1475  256306.044 -437528.23 181222.184 -618750.41 693834.272 -75083.861
 148000      .148  318705.459 -421655.48 102950.025 -524605.51 740360.944 -215755.43
 148500     .1485  369814.576 -390845.39   21030.81  -411876.2 760659.962 -348783.77
 149000      .149  407822.828  -346189.4 -61633.433 -284555.96 754012.223 -469456.26
 149500     .1495  431383.754 -289269.47 -142114.28 -147155.19 720653.227 -573498.04
 150000       .15  439662.697 -222102.04 -217560.66 -4541.3737 661764.732 -657223.36
 150500     .1505   432366.37 -147066.52 -285299.85 138233.325 579432.893 -717666.22
 151000      .151   409753.25 -66821.106 -342932.14 276111.039 476574.356  -752685.4
 151500     .1515  372624.419 15791.4818  -388415.9 404207.382 356832.937 -761040.32
 152000      .152  322295.182 97844.6479 -420139.83 517984.478 224450.534 -742435.01
 152500     .1525   260548.48 176431.618  -436980.1 613411.716 84116.8612 -697528.58
 153000      .153  189571.718  248768.41 -438340.13 687108.538 -59196.692 -627911.85
 153500     .1535  111879.285 312292.457 -424171.74 736464.199 -200413.17 -536051.03
 154000      .154  30223.4734 364753.387 -394976.86 759730.248 -334529.91 -425200.33
 154500     .1545  -52503.019 404292.747 -351789.73 756082.475 -456795.77 -299286.71
 155000      .155  -133369.56 429509.834 -296140.27 725650.104  -562879.4 -162770.71
 155500     .1555  -209511.42 439511.321  -229999.9 669511.216 -649022.75 -20488.471
 156000      .156  -278231.24 433942.899 -155711.66  589654.56 -712174.14 122519.577
 156500     .1565  -337094.57 413001.834 -75907.264 488909.098  -750096.4 261187.306
 157000      .157  -384016.16 377429.973 6586.18505 370843.788 -761446.13 390602.343
 157500     .1575  -417333.78 328487.466 88846.3144 239641.152 -745821.25 506180.095
 158000      .158  -435867.15 267908.127 167959.018 99949.1088 -703775.27 603826.163
 158500     .1585   -438959.7 197838.008 241121.689 -43283.681 -636797.71 680081.387
 159000      .159  -426501.88  120759.38 305742.504 -184983.12 -547261.26 732244.387
 159500     .1595  -398935.03 39402.7892 359532.237 -320129.45 -438337.81 758467.262
 160000       .16   -357235.7 -43349.665  400585.36 -443935.03 -313886.03 757821.055
 160500     .1605  -302881.11 -124566.44 427447.547 -552013.98 -178314.67 730328.658
 161000      .161  -237796.81 -201370.38 439167.191 -640537.57 -36426.432 676964.002
 161500     .1615  -164288.44 -271040.68 435329.117 -706369.79 106752.237 599617.557
 162000      .162  -84960.068 -331109.22 416069.291 -747178.51 246149.155  501029.36
 162500     .1625  -2621.9423 -379448.06 382070.003 -761518.06 376826.119 384691.946
 163000      .163  79809.0681 -414344.76 334535.694 -748880.46  494153.83 254726.626
 163500     .1635  159412.803 -434563.09 275150.291 -709713.38 593975.897 115737.487
 164000      .164  233369.262 -439386.81  206017.55 -645404.36 672756.073 -27351.712
 164500     .1645  299058.499 -428645.03 129586.535 -558231.57 727703.532 -169471.96
 165000      .165   354153.44 -402718.29 48564.8508 -451283.14 756871.731 -305588.59
 165500     .1655   396702.32 -362525.05 -34177.268 -328347.78 759227.372 -430879.59
 166000      .166  425197.824 -309489.18 -115708.64 -193780.54 734687.007 -540906.46
 166500     .1665  438630.483 -245489.51 -193140.98 -52348.529  684119.99 -631771.46
 167000      .167  436524.441 -172793.24  -263731.2 90937.9576 609317.682 -700255.64
 167500     .1675  418954.303  -93975.69 -324978.61 231002.923 512929.993 -743932.92
 168000      .168  386542.501 -11829.003  -374713.5 362884.494 398371.504   -761256.
 168500     .1685  340437.239 70736.7315 -411173.97 481910.702 269700.507 -751611.21
 169000      .169  282271.819 150796.582  -433068.4 583864.983 131475.237 -715340.22
 169500     .1695   214106.78 225514.388 -439621.17 665135.557 -11407.608 -653727.95
 170000       .17  138356.903 292243.234 -430600.14 722843.372 -153886.33 -568957.04
 170500     .1705  57705.6642 348619.218 -406324.88   754944.1 -290913.55 -464030.55
 171000      .171  -24989.826 392645.192 -367655.37 760300.558 -417635.02 -342665.54
 171500     .1715  -106800.04 422761.514 -315961.48  738722.99 -529561.55 -209161.44
 172000      .172   -184826.8 437901.298 -253074.49 690975.792  -622728.1 -68247.691
 172500     .1725  -256305.99  437528.21 -181222.22 618750.433  -693834.2 75083.7645
 173000      .173   -318705.4 421655.467 -102950.06 524605.531 -740360.87 215755.339
 173500     .1735  -369814.52 390845.368 -21030.849 411876.217 -760659.89 348783.671
 174000      .174  -407822.77 346189.378 61633.3942 284555.983 -754012.15 469456.166
 174500     .1745   -431383.7 289269.455 142114.243 147155.212 -720653.15 573497.941
 175000      .175  -439662.64 222102.018 217560.623 4541.39466 -661764.66 657223.264
 175500     .1755  -432366.31 147066.506 285299.809  -138233.3 -579432.82 717666.124
 176000      .176   -409753.2 66821.0887 342932.107 -276111.02 -476574.28 752685.302
 176500     .1765  -372624.36 -15791.499 388415.863 -404207.36 -356832.87 761040.227
 177000      .177  -322295.13 -97844.665 420139.793 -517984.46 -224450.46 742434.921
 177500     .1775  -260548.43 -176431.64  436980.06  -613411.7  -84116.79 697528.486
 178000      .178  -189571.66 -248768.43 438340.091 -687108.52 59196.7631 627911.755
 178500     .1785  -111879.23 -312292.47 424171.705 -736464.18 200413.243 536050.936
 179000      .179   -30223.42  -364753.4 394976.824 -759730.23 334529.984 425200.244
 179500     .1795  52503.0718 -404292.76 351789.692 -756082.45 456795.835  299286.62
 180000       .18  133369.617 -429509.85 296140.233 -725650.08 562879.467 162770.616
 180500     .1805  209511.478 -439511.34 229999.859  -669511.2 649022.815 20488.3816
 181000      .181  278231.291 -433942.92 155711.625 -589654.54 712174.206 -122519.67
 181500     .1815  337094.622 -413001.85  75907.228 -488909.08 750096.473 -261187.39
 182000      .182   384016.21 -377429.99 -6586.2208 -370843.77 761446.199 -390602.43
 182500     .1825  417333.832 -328487.48  -88846.35 -239641.13 745821.314 -506180.18
 183000      .183  435867.196 -267908.14 -167959.05 -99949.089 703775.339 -603826.25
 183500     .1835  438959.749 -197838.02 -241121.72 43283.7002 636797.773 -680081.47
 184000      .184  426501.934  -120759.4 -305742.54 184983.143 547261.329 -732244.47
 184500     .1845  398935.076 -39402.805 -359532.27 320129.467 438337.881 -758467.35
 185000      .185  357235.745 43349.6494 -400585.39 443935.044 313886.096 -757821.14
 185500     .1855  302881.161  124566.42 -427447.58 552014.002 178314.741 -730328.74
 186000      .186  237796.861 201370.364 -439167.22 640537.589 36426.4974 -676964.09
 186500     .1865   164288.49 271040.661 -435329.15 706369.812 -106752.17 -599617.64
 187000      .187  84960.1175 331109.208 -416069.33 747178.534 -246149.09 -501029.44
 187500     .1875  2621.99142 379448.046 -382070.04 761518.083 -376826.05 -384692.03
 188000      .188  -79809.019 414344.747 -334535.73 748880.475 -494153.77 -254726.71
 188500     .1885  -159412.75 434563.079 -275150.32 709713.403 -593975.83 -115737.57
 189000      .189  -233369.21 439386.797 -206017.58  645404.38 -672756.01 27351.6299
 189500     .1895  -299058.45 428645.018 -129586.57 558231.586 -727703.47 169471.883
 190000       .19  -354153.39 402718.276 -48564.884  451283.16 -756871.67 305588.508
 190500     .1905  -396702.27 362525.038 34177.2349 328347.803 -759227.31 430879.507
 191000      .191  -425197.78 309489.169 115708.607 193780.561 -734686.95 540906.384
 191500     .1915  -438630.44 245489.492 193140.944 52348.5474 -684119.93 631771.381
 192000      .192  -436524.39 172793.227 263731.167  -90937.94 -609317.62  700255.56
 192500     .1925  -418954.26 93975.6757  324978.58  -231002.9 -512929.93 743932.836
 193000      .193  -386542.45  11828.989 374713.465 -362884.48 -398371.44  761255.92
 193500     .1935  -340437.19 -70736.746 411173.938 -481910.68 -269700.45 751611.131
 194000      .194  -282271.77  -150796.6 433068.369 -583864.97 -131475.18 715340.143
  % % % % % %   Suspended simulation;  plot data space exhausted;  SPY SPACE is required.   LIMBUF =  340000.
  % % % % % %   Suspended simulation;  plot data space exhausted;  SPY SPACE is required.   LIMBUF =  340000.
  +++  Time-sharing disabled.   Send  user-keyed interrupt to silence alarm.
   Current values.  INDBUF  INDBEG  LIMBUF  MFLUSH  NUMDCD  KCARD1  KCARD2
                    339998      50  340000    1003     134       1     138
Plot timespan now in memory (in sec) = 1.45688996E-01   1.94253000E-01
   ++++  Begin plot-data copy from memory to disk.   MFLUSH, INDBUF, N4, Tbeg,  Tend = 1004  339998       1  -1.00000E+00
1.00000E+19
SPY: 194500     .1945  -214106.73  -225514.4 439621.137 -665135.54 11407.6677 653727.871
 195000      .195  -138356.86 -292243.25 430600.106 -722843.35 153886.391 568956.963
 195500     .1955  -57705.619 -348619.23 406324.851 -754944.08 290913.613  464030.47
 196000      .196  24989.8704 -392645.21 367655.335 -760300.54 417635.076 342665.465
 196500     .1965  106800.082 -422761.53 315961.446 -738722.97 529561.609 209161.364
 197000      .197  184826.848 -437901.31 253074.464 -690975.78  622728.16 68247.6158
 197500     .1975  256306.031 -437528.22 181222.192 -618750.42 693834.255 -75083.839
 198000      .198  318705.447 -421655.48 102950.034 -524605.51 740360.927 -215755.41
 198500     .1985  369814.563 -390845.38 21030.8186  -411876.2 760659.945 -348783.74
 199000      .199  407822.815 -346189.39 -61633.424 -284555.97 754012.206 -469456.24
 199500     .1995  431383.741 -289269.47 -142114.27  -147155.2  720653.21 -573498.01
  % % % % % %   Final time step,  PLTFIL  dumps plot data to ".PL4" disk file.
  Done dumping plot points to C-like disk file.
 200000       0.2  439662.684 -222102.03 -217560.65 -4541.3781 661764.715 -657223.34
 
Extrema of output variables follow.   Order and column positioning are the same as for the preceding time-step loop output.
Variable maxima :  442694.759 439696.497 439670.468 761531.656  938090.51 761531.903
Times of maxima :     .016685     .02224     .19446    .037516    .014019    .026405
Variable minima :  -439670.63 -671967.08 -439670.54 -.107829E7 -761531.58 -763311.65
Times of minima :     .025016    .014016    .036127    .014014    .173627    .017993
 
Blank card terminating all plot cards.            |BLANK PLOT
Card of names for time-step loop output.          |  STDA  STDB  STDC
Card of names for time-step loop output.          |-5STDB  STDC  STDA  STDB  STDC  STDA
Blank card ending requests for output variables.  |BLANK OUTPUT
 
The data case now ready to be solved is a statistical overvoltage study that involves  NENERG = 300   energizations.
Closing or opening times for  "STATISTICS"  switches are to be varied randomly according to a Normal   distribution.   The following
is a listing of switches that are to have closing or opening times varied randomly.
The user keyed the "STATISTICS" miscellaneous data parameter  XMAXMX = -2.00000000E+00,  with the negative sign representing a
request for use of standard (independent of computer) random numbers.  The answer will really be deterministic, then,  since a
second, repeated solution should give an identical answer.
          Entry    Switch      From        To         Columns 15-24        Columns 25-34       Reference switch number
         number    number       bus       bus          (in seconds)         (in seconds)       (0 implies independence)
              1         1    X0001B    X0002B             0.013000             0.001000               0
              2         2    X0001A    X0002A             0.013000             0.001000               0
              3         3    X0001C    X0002C             0.013000             0.001000               0
In addition to variation of the switching time that is caused by each switch`s own distribution, there is the added random delay
that is the same for all switches.  This added random delay is called "reference angle," and it has a uniform distribution over the
time interval  0.00000000E+00   to  3.60000000E+02   degrees at frequency  6.00000000E+01   (data fields  DEGMIN, DEGMAX, and STATFR
of the  STARTUP file).   However, if  "ITEST"  (columns 9-16 of the  STATISTICS  miscellaneous data card) is positive, the reference
angle is set to zero, and there is no such added random delay.
In the following output, for each energization there will be a tabulation of switch times that were used, followed by a display of
peak values that occurred during the energization.  Format for this latter output is identical to that for the extrema of a
conventional (non-statistical) simulation.
Well, almost identical!  Output of the reference angle in degrees has been added at the extreme left in otherwise blank space.
 
                       STDA       STDB       STDC       STDB       STDA       STDC
  Reference angle                                       STDC       STDB       STDA
             Random switching times for energization number  1  :
                                   1  1.4908123E-02    2  1.2212617E-02    3  1.1833314E-02
             ==== Table dumping for all subsequent restorations.  Time [sec] = 9.00000000E-03
 
                   536144.823 -623247.33  653448.41 761531.696 .1008762E7 -761531.73
Times of maxima :     .015287    .015921    .012872    .037516    .015922    .034738
             Random switching times for energization number  2  :
                                   1  1.5749406E-02    2  1.3206877E-02    3  1.3669873E-02
 
                   557823.723 -450480.34 -444490.63 764811.698 893392.296 -764139.59
Times of maxima :     .016126    .016727    .018987    .020748    .016717    .018105
             Random switching times for energization number  3  :
                                   1  1.2258065E-02    2  9.9288969E-03    3  1.3595588E-02
 
                   -567726.57 -682503.62 -440502.01 761830.527 770052.404 -766305.57
Times of maxima :     .010979    .013314    .019623    .020846    .015519    .018105
             Random switching times for energization number  4  :
                                   1  1.2698845E-02    2  1.3254904E-02    3  1.6681031E-02
 
                    536691.37 -754219.06 -510481.19  764114.97 848570.356 -881194.72
Times of maxima :      .01705    .013636     .01786    .020676    .014269    .017699
             Random switching times for energization number  5  :
                                   1  1.3291457E-02    2  1.3243916E-02    3  1.2660880E-02
 
                   442092.672 -755481.42 661613.311 -906897.84 .1007888E7 -761531.75
Times of maxima :     .015612     .01431     .01367     .01398    .014308    .034738
             Random switching times for energization number  6  :
                                   1  1.3662405E-02    2  1.2427276E-02    3  1.3188265E-02
 
                   461435.561 -739441.83 568187.739  -877135.1   .10305E7 -764881.78
Times of maxima :     .016019    .014681     .01404    .014327    .014678    .018012
             Random switching times for energization number  7  :
                                   1  1.2675050E-02    2  1.2303119E-02    3  1.2774044E-02
 
                   443662.244 -652396.02 452206.358 -.110451E7 845891.691 -761977.68
Times of maxima :     .016531    .013694     .01369    .013692    .013701    .017992
             Random switching times for energization number  8  :
                                   1  1.3570954E-02    2  1.1247088E-02    3  1.4071479E-02
 
                   448827.666 -769191.49 -440588.12  -855929.5 987548.529 -761531.78
Times of maxima :     .015628    .014452    .019039    .014586    .014587    .034738
             Random switching times for energization number  9  :
                                   1  1.2549220E-02    2  1.4425027E-02    3  1.4375821E-02
 
                   618641.092 -771382.42 -441022.19 761531.675 963143.572 -767903.96
Times of maxima :     .015554    .013606    .018875    .037516    .015442    .018088
             Random switching times for energization number  10  :
                                   1  1.0364068E-02    2  1.1749029E-02    3  1.4080098E-02
 
                   449054.865 -506981.73 439689.653 761820.072 761531.778 -761640.95
Times of maxima :     .016939    .014456    .027794    .020855     .03196    .018214
             Random switching times for energization number  11  :
                                   1  1.3215355E-02    2  1.2722160E-02    3  1.3849049E-02
 
                   455176.511 -794866.51 439683.075 -870914.15 966285.347  -763321.9
Times of maxima :     .017008    .014229    .027794    .014235    .014232    .018182
             Random switching times for energization number  12  :
                                   1  1.1928866E-02    2  1.4861373E-02    3  1.4684943E-02
 
                   689901.832 -692933.59 -453960.93  761531.67 974181.213 -770144.18
Times of maxima :     .015879    .012987    .019154    .037516    .015876    .018261
             Random switching times for energization number  13  :
                                   1  1.1976836E-02    2  1.2486758E-02    3  1.3504249E-02
 
                   467976.463 -654611.15 -441699.77 761836.104 767023.723 -766610.38
Times of maxima :     .016411    .013034    .019556    .020844    .015435    .018082
             Random switching times for energization number  14  :
                                   1  1.2895890E-02    2  1.2329797E-02    3  1.3787010E-02
 
                   465253.378 -723937.79 439693.944 -817609.34  902326.82 -764916.06
Times of maxima :     .016817    .013949    .027794    .014158    .013914    .018151
             Random switching times for energization number  15  :
                                   1  1.2945292E-02    2  1.3904569E-02    3  1.5137395E-02
 
                   597079.695 -799662.42 439688.976 761531.686 862522.774 -763340.48
Times of maxima :     .014964    .014002    .027794    .037516     .01492    .017592
             Random switching times for energization number  16  :
                                   1  1.5205881E-02    2  1.4610671E-02    3  1.3050554E-02
 
                    704242.39 -561311.17 488376.615 761531.725 .1024964E7 -776098.17
Times of maxima :     .015585     .01622    .014097    .037516    .016098    .018037
             Random switching times for energization number  17  :
                                   1  1.3929846E-02    2  1.4261640E-02    3  1.3273765E-02
 
                   538151.974 -725037.22 583974.389 -780882.56 .1066863E7 -775951.61
Times of maxima :     .015472    .014644    .014307    .014558    .015123     .01795
             Random switching times for energization number  18  :
                                   1  1.4150103E-02    2  1.3373140E-02    3  1.4436317E-02
 
                    553069.76 -694769.96 -446926.97 761642.091 .1043118E7 -761531.78
Times of maxima :     .014527    .015167    .019404    .020878    .015164    .034738
             Random switching times for energization number  19  :
                                   1  1.3221136E-02    2  1.1122337E-02    3  1.3862834E-02
 
                   454934.111 -815607.88 439684.307 -870388.52 938283.328  -763795.9
Times of maxima :     .017071    .014239    .027794    .014242    .014238    .018177
             Random switching times for energization number  20  :
                                   1  1.1960272E-02    2  1.2736508E-02    3  1.1459839E-02
 
                   455796.368 -707946.14  812366.14 -.103417E7 772723.107 -761531.72
Times of maxima :     .016492    .013021     .01234    .012801    .015361    .034738
             Random switching times for energization number  21  :
                                   1  1.3354696E-02    2  1.2600557E-02    3  1.3279244E-02
 
                   -439678.72 -686835.21 493906.541 -.100462E7  986074.07 -765240.94
Times of maxima :     .025018     .01437    .013736    .014296    .014371    .018026
             Random switching times for energization number  22  :
                                   1  1.3602264E-02    2  1.3784856E-02    3  1.3863882E-02
 
                   504714.852 -703413.38 439676.189  -897824.2 .1049409E7 -762945.09
Times of maxima :     .015028     .01421    .027794    .014617    .014784    .018091
             Random switching times for energization number  23  :
                                   1  1.5863901E-02    2  1.2556725E-02    3  1.4805039E-02
 
                   556174.505 -444661.83  -454234.7 765276.474 864349.625 -761531.79
Times of maxima :     .016241    .016744    .019005    .020769    .016791    .034738
             Random switching times for energization number  24  :
                                   1  1.2784584E-02    2  1.4785518E-02    3  1.1643136E-02
 
                   623340.683 -809239.85 748079.415   -875426. 979429.596 -778942.13
Times of maxima :     .015836    .013832    .012698    .013799    .015802    .018181
             Random switching times for energization number  25  :
                                   1  1.4890435E-02    2  1.4213115E-02    3  1.1181559E-02
 
                   664388.114 -634162.95 790662.586 761531.683 .1039562E7 -769283.79
Times of maxima :     .015268    .015905    .012236    .037516    .015901     .01796
             Random switching times for energization number  26  :
                                   1  1.3258964E-02    2  1.2431268E-02    3  1.4649478E-02
 
                    444741.68 -744033.33  -441358.7 761531.688  970564.89 -761531.79
Times of maxima :     .017267     .01431    .019094    .037516    .014275    .034738
             Random switching times for energization number  27  :
                                   1  1.3984656E-02    2  1.2112394E-02    3  1.3184808E-02
 
                   490071.147 -754246.89  470489.74 762144.169 .1047636E7 -764823.69
Times of maxima :      .01607       .015     .01434    .020855    .014999    .018015
             Random switching times for energization number  28  :
                                   1  1.2922221E-02    2  1.2030195E-02    3  1.2872376E-02
 
                   -439686.82 -660022.99 505356.799 -.108727E7 919797.109 -762588.23
Times of maxima :     .025016    .013939    .013308    .013889    .013941    .017993
             Random switching times for energization number  29  :
                                   1  1.3256073E-02    2  1.2108308E-02    3  1.3989777E-02
 
                   453801.369 -774518.56 439679.653 -831721.69 971494.625 -761939.29
Times of maxima :     .017073    .014334    .027794    .014351    .014273    .018211
             Random switching times for energization number  30  :
                                   1  1.2132466E-02    2  1.3024886E-02    3  1.1602257E-02
 
                   459972.995 -734165.69 812122.927 -.102704E7 767602.152 -761531.72
Times of maxima :     .016578    .013192    .012512    .012951    .015475    .034738
             Random switching times for energization number  31  :
                                   1  1.3724387E-02    2  1.3802021E-02    3  1.3579372E-02
 
                    439670.52 -654753.49 483111.827 -913903.82 .1084036E7 -765865.99
Times of maxima :     .100016    .014739    .014104    .014595    .014746    .018011
             Random switching times for energization number  32  :
                                   1  1.3853755E-02    2  1.3188411E-02    3  1.2579173E-02
 
                   477179.285 -755203.78 536186.843 762029.436 .1057692E7 -761531.75
Times of maxima :     .015902    .014868    .013621    .020854    .014869    .034738
             Random switching times for energization number  33  :
                                   1  1.4185801E-02    2  1.3429021E-02    3  1.1680405E-02
 
                   540282.304 -692459.38 743668.127 761754.786 .1064751E7 -761531.73
Times of maxima :     .014564    .015201    .012735    .020873      .0152    .034738
             Random switching times for energization number  34  :
                                   1  1.2748743E-02    2  1.2637224E-02    3  1.4395028E-02
 
                    454721.98 -714199.03 439684.359 761531.675 865008.179 -761531.79
Times of maxima :     .016964    .013802    .027794    .037516     .01377    .034738
             Random switching times for energization number  35  :
                                   1  1.2484734E-02    2  1.4143275E-02    3  1.2247176E-02
 
                   550082.743 -712989.64 687655.561 -.110168E7 881393.066 -767834.45
Times of maxima :     .015161    .013544    .012864    .013274    .015175    .017874
             Random switching times for energization number  36  :
                                   1  1.2795799E-02    2  1.2992952E-02    3  1.3598751E-02
 
                   472226.259 -730313.87 439693.367 -870899.58 882064.616 -765546.04
Times of maxima :     .016677    .013949    .027793    .013996    .014007    .018105
             Random switching times for energization number  37  :
                                   1  1.2882025E-02    2  1.4400114E-02    3  1.3970197E-02
 
                   600368.617 -796341.64 439691.635 761873.172 911121.884 -774779.04
Times of maxima :     .015415    .013939    .027795    .020849    .015417    .018067
             Random switching times for energization number  38  :
                                   1  1.4133409E-02    2  1.1675576E-02    3  1.3608790E-02
 
                   484384.569 -723107.89  449831.63 762056.812 .1046439E7 -765430.86
Times of maxima :     .016211    .015149     .01451    .020866    .015149    .018098
             Random switching times for energization number  39  :
                                   1  1.3307290E-02    2  1.3963030E-02    3  1.3311662E-02
 
                   523028.404 -776151.41 439676.894 -.101738E7 914235.845 -770646.12
Times of maxima :     .015153    .014331    .027794    .014322    .014678    .017894
             Random switching times for energization number  40  :
                                   1  1.0542631E-02    2  1.4355930E-02    3  1.3919427E-02
 
                     578657.8 -554361.43 439693.726  761964.22 940328.303  -773963.6
Times of maxima :     .015372    .014296    .027795    .020852    .015371    .018053
             Random switching times for energization number  41  :
                                   1  1.0006889E-02    2  1.2913389E-02    3  1.1898445E-02
 
                   446920.602 -536365.83 688584.772 -.102887E7 761531.782 -761531.73
Times of maxima :     .016834    .012277    .012933    .012913     .03196    .034738
             Random switching times for energization number  42  :
                                   1  1.5427135E-02    2  1.3889337E-02    3  1.3133879E-02
 
                   533015.406 -527801.25 467997.334 761531.735 931617.938 -767122.95
Times of maxima :     .015806    .016355    .014179    .037516     .01644    .017915
             Random switching times for energization number  43  :
                                   1  1.1936553E-02    2  1.3555588E-02    3  1.1250561E-02
 
                   460087.232 -710270.73 889947.509 -982216.78 820763.126 -761531.71
Times of maxima :     .016666    .013071    .012307    .012891    .014922    .034738
             Random switching times for energization number  44  :
                                   1  1.1088586E-02    2  1.1892236E-02    3  1.3850591E-02
 
                    451383.88 -542059.22 439690.038  761960.42 761531.772 -764468.01
Times of maxima :      .01679    .014226    .027794    .020849     .03196    .018166
             Random switching times for energization number  45  :
                                   1  1.2475799E-02    2  1.4403525E-02    3  1.0876687E-02
 
                   566307.643 -749482.11 805746.416  -936183.7 947009.241 -776205.12
Times of maxima :     .015567    .013526    .011932    .013491    .015421    .017966
             Random switching times for energization number  46  :
                                   1  1.1986998E-02    2  1.4476685E-02    3  1.3798112E-02
 
                   561106.171  -701938.9 439682.996 761968.628 951516.564 -778046.42
Times of maxima :     .015498    .013044    .027794     .02085    .015492     .01806
             Random switching times for energization number  47  :
                                   1  1.1583782E-02    2  1.3126827E-02    3  1.3065427E-02
 
                   467932.569 -632703.08 485765.042  -850552.7 785047.758 -763532.17
Times of maxima :     .016282    .012642    .014006    .014078    .014563    .017994
             Random switching times for energization number  48  :
                                   1  1.4075489E-02    2  1.2838875E-02    3  1.4317786E-02
 
                   503073.244 -693985.02 -446169.79 -780955.81 .1031837E7 -761531.78
Times of maxima :     .014454    .015091    .019342    .015088    .015091    .034738
             Random switching times for energization number  49  :
                                   1  1.3007702E-02    2  1.2644372E-02    3  1.3096030E-02
 
                   442937.654 -673310.33 439671.509 -.105942E7 926727.348 -764474.01
Times of maxima :     .016718    .014026    .027794    .014023    .014025    .018002
             Random switching times for energization number  50  :
                                   1  1.3965524E-02    2  1.3680622E-02    3  1.3082668E-02
 
                   499047.207 -739628.56 470736.338 762102.368 .1083792E7 -764347.89
Times of maxima :     .014344    .014982    .014323    .020854     .01498    .017947
             Random switching times for energization number  51  :
                                   1  1.3598804E-02    2  1.2276359E-02    3  1.0715527E-02
 
                   445285.838 -737751.01 809426.097 -825948.64 .1040685E7  -761531.7
Times of maxima :     .015893    .014615    .011771     .01461    .014614    .034738
             Random switching times for energization number  52  :
                                   1  1.4492177E-02    2  1.3323607E-02    3  1.3385361E-02
 
                   542984.713 -711316.85  -448745.3 761531.708 .1040251E7 -764580.09
Times of maxima :     .014869    .015507    .019642    .037516    .015507    .018037
             Random switching times for energization number  53  :
                                   1  1.2848801E-02    2  1.2872469E-02    3  1.2140683E-02
 
                   455589.061  -767964.2 800633.914 -944202.09  897945.97 -761531.74
Times of maxima :     .017025     .01389      .0132    .013604    .013889    .034738
             Random switching times for energization number  54  :
                                   1  1.3704611E-02    2  1.1291218E-02    3  1.4242011E-02
 
                   458570.086 -765266.61 -444309.94 -819824.91 .1003438E7 -761531.78
Times of maxima :     .015751    .014623     .01909    .014719    .014721    .034738
             Random switching times for energization number  55  :
                                   1  1.2107763E-02    2  1.3718220E-02    3  1.4346810E-02
 
                   502914.478  -719650.5 439696.286 761545.465 868446.515 -761531.78
Times of maxima :      .01489    .013165    .027794    .020863     .01479    .034738
             Random switching times for energization number  56  :
                                   1  1.3093683E-02    2  1.2501536E-02    3  1.3659740E-02
 
                    457507.28 -782896.99 439686.942 -911696.27 942586.951 -765196.95
Times of maxima :      .01689    .014039    .027794    .014112    .014111    .018131
             Random switching times for energization number  57  :
                                   1  1.2708967E-02    2  1.3227363E-02    3  1.2931377E-02
 
                   459629.642 -700651.62 -441505.02 -.106618E7 837726.036 -762160.26
Times of maxima :     .016567    .013312    .019551    .013726    .014075    .017974
             Random switching times for energization number  58  :
                                   1  1.2394857E-02    2  1.2030061E-02    3  1.1896148E-02
 
                   454207.703 -695602.52 743415.406 -.103383E7 794484.789 -761531.73
Times of maxima :      .01673    .013477    .012773    .013094    .013536    .034738
             Random switching times for energization number  59  :
                                   1  1.3917477E-02    2  1.3339229E-02    3  1.1708472E-02
 
                   454100.668 -702827.31 740233.629 -780677.56 .1074165E7 -761531.73
Times of maxima :     .014297    .014933    .012763     .01493    .014932    .034738
             Random switching times for energization number  60  :
                                   1  1.3549337E-02    2  1.2474677E-02    3  1.5309596E-02
 
                   443272.234 -753196.15 -444769.28 761576.203 .1003907E7  -761531.8
Times of maxima :     .015462    .014597    .019215    .020847    .014565    .034738
             Random switching times for energization number  61  :
                                   1  1.3118381E-02    2  1.2126451E-02    3  1.2045900E-02
 
                   451320.149 -764576.81 626273.804 -835252.44  987373.92 -761531.73
Times of maxima :     .017105    .014135    .013083    .014132    .014135    .034738
             Random switching times for energization number  62  :
                                   1  1.3254835E-02    2  1.1986601E-02    3  1.2724608E-02
 
                   443274.518 -743620.71 663000.106 -941875.83 994678.572 -761531.75
Times of maxima :     .015707    .014277    .013632    .013918    .014271    .034738
             Random switching times for energization number  63  :
                                   1  1.3175046E-02    2  1.3610338E-02    3  1.3612031E-02
 
                    528831.16 -867936.65 439696.271 -931679.15 947616.525 -764315.02
Times of maxima :     .014811    .013991    .027794    .014193    .014623    .018056
             Random switching times for energization number  64  :
                                   1  1.2663674E-02    2  1.2897636E-02    3  1.2128526E-02
 
                   455676.183 -735206.42 766994.494 -.100511E7 838751.408 -761531.74
Times of maxima :      .01692    .013784    .013042    .013405    .013913    .034738
             Random switching times for energization number  65  :
                                   1  1.2322733E-02    2  1.3869726E-02    3  1.4040456E-02
 
                   548920.449 -747406.21 439709.037 761802.196 882934.059 -761531.77
Times of maxima :     .014889     .01338    .027794    .020857      .0149    .034738
             Random switching times for energization number  66  :
                                   1  1.3400877E-02    2  1.4055618E-02    3  1.2532049E-02
 
                   592136.243  -894465.2 604293.477 -847555.67  921419.77 -768770.04
Times of maxima :     .015264    .014428    .013584    .014094    .014645    .017851
             Random switching times for energization number  67  :
                                   1  1.5776328E-02    2  1.4442809E-02    3  1.2011698E-02
 
                   587928.608  -484294.7 697908.947 764839.421 847809.439 -770941.73
Times of maxima :     .015501    .016683    .013065    .020756    .016788    .018033
             Random switching times for energization number  68  :
                                   1  1.3379646E-02    2  1.4290932E-02    3  1.4433118E-02
 
                   652142.779 -810229.18 -446979.59 761742.522 909045.346 -763796.69
Times of maxima :     .015305    .014435    .018803    .020857    .015073    .018036
             Random switching times for energization number  69  :
                                   1  1.3118218E-02    2  1.3601339E-02    3  1.3080080E-02
 
                   450862.259 -711775.41 467048.408 -.105486E7   916492.4 -764321.07
Times of maxima :     .016953    .013984    .013506    .014097     .01431    .017915
             Random switching times for energization number  70  :
                                   1  1.3297571E-02    2  1.4647229E-02    3  1.4251899E-02
 
                   655023.125 -809883.77 -449527.46 761908.238 909938.727 -775088.38
Times of maxima :     .015663    .014353     .01886    .020854    .015663    .018181
             Random switching times for energization number  71  :
                                   1  1.3425211E-02    2  1.2442673E-02    3  1.4530370E-02
 
                   445124.422 -750556.81 -442860.89 761714.219 991617.365 -761531.79
Times of maxima :     .015716    .014475    .019046    .020854    .014442    .034738
             Random switching times for energization number  72  :
                                   1  1.1480989E-02    2  1.2549209E-02    3  1.3377816E-02
 
                   458449.242 -612604.16 -441326.49 -789437.08 761531.764 -766674.32
Times of maxima :     .016328     .01254    .019516    .014387     .03196    .018052
             Random switching times for energization number  73  :
                                   1  1.3720496E-02    2  1.2416626E-02    3  1.2919539E-02
 
                   474758.255 -765240.52 535182.129 -800595.67 .1041001E7 -763065.66
Times of maxima :     .015841    .014737    .014076    .014392    .014736    .017989
             Random switching times for energization number  74  :
                                   1  1.2641625E-02    2  1.3080846E-02    3  1.2337543E-02
 
                   450439.123 -694986.74  699973.18 -.107245E7 813566.225 -761531.74
Times of maxima :     .016895    .013808    .013021    .013384    .014096    .034738
             Random switching times for energization number  75  :
                                   1  1.2141799E-02    2  1.3195401E-02    3  1.3212869E-02
 
                   479726.898 -734905.97 473424.144 -839955.68 761531.738 -764320.43
Times of maxima :     .016392    .013574    .014031    .013827     .03196    .018013
             Random switching times for energization number  76  :
                                   1  1.4776283E-02    2  1.4666063E-02    3  1.3019496E-02
 
                   579611.497 -584386.69 495870.198  761531.71 .1149807E7 -775975.19
Times of maxima :     .015792    .015606    .014067    .037516    .015788    .018067
             Random switching times for energization number  77  :
                                   1  1.2066388E-02    2  1.4591856E-02    3  1.3364545E-02
 
                   590696.369 -713814.98 450038.356 -766777.85 953483.947 -782660.05
Times of maxima :     .015771    .013124    .014394    .014376    .015607    .018035
             Random switching times for energization number  78  :
                                   1  1.3059291E-02    2  1.3070132E-02    3  1.2385099E-02
 
                   447839.575 -764785.11 751928.705 -927506.03 953658.269 -761531.74
Times of maxima :     .017182    .014086    .013408    .013785    .014086    .034738
             Random switching times for energization number  79  :
                                   1  1.1909488E-02    2  1.2876469E-02    3  1.3536837E-02
 
                    470668.52 -689912.66 -441837.55  761862.89  761531.75 -766118.87
Times of maxima :     .016421    .012968    .019552    .020844     .03196    .018094
             Random switching times for energization number  80  :
                                   1  1.2759694E-02    2  1.2464890E-02    3  1.4040785E-02
 
                   463859.151 -716078.65  439693.69 761732.107 866917.973 -761531.79
Times of maxima :      .01691    .013813    .027794    .020852     .01378    .034738
             Random switching times for energization number  81  :
                                   1  1.3937887E-02    2  1.0773098E-02    3  1.2547973E-02
 
                   473938.102 -738096.85 533330.575  761979.42 .1064496E7 -761531.73
Times of maxima :     .015962    .014951    .013577    .020859    .014953    .034738
             Random switching times for energization number  82  :
                                   1  1.3729181E-02    2  1.1851157E-02    3  1.2377655E-02
 
                   473638.603 -764407.35 586588.921 762065.851 .1042692E7 -761531.74
Times of maxima :      .01578    .014744     .01341     .02085    .014745    .034738
             Random switching times for energization number  83  :
                                   1  1.2975499E-02    2  1.3135638E-02    3  1.3214158E-02
 
                   457657.549  -696973.3   439679.4  -.10267E7  928273.68 -764508.21
Times of maxima :     .016698    .013593    .027793    .013992    .014149    .018018
             Random switching times for energization number  84  :
                                   1  1.2827217E-02    2  1.3731938E-02    3  1.2329994E-02
 
                   503569.763 -782622.05 737204.586 -.100152E7 823824.585 -761531.73
Times of maxima :     .014944    .013885    .013206    .013545    .014353    .034738
             Random switching times for energization number  85  :
                                   1  1.2247663E-02    2  1.2729468E-02    3  1.3855343E-02
 
                   466564.385 -685587.87  439690.44 761857.396 762155.513 -764096.96
Times of maxima :     .016621    .013304    .027793    .020851    .015606    .018178
             Random switching times for energization number  86  :
                                   1  1.3013590E-02    2  1.1273965E-02    3  1.1476498E-02
 
                   452553.965 -754748.28 696666.745 -869359.84 954111.619 -761774.68
Times of maxima :     .016975    .014028    .012524    .014028    .014029    .018099
             Random switching times for energization number  87  :
                                   1  1.2980128E-02    2  1.2784671E-02    3  1.2550888E-02
 
                   442170.153 -723437.08 669541.602 -.100367E7 934656.861 -761531.75
Times of maxima :      .01714    .014015    .013359     .01368    .013999    .034738
             Random switching times for energization number  88  :
                                   1  1.2611942E-02    2  1.3943177E-02    3  1.3258585E-02
 
                    501961.91 -870975.96 464450.077 -921647.78  841299.31 -770454.47
Times of maxima :     .014962    .013639     .01428    .013814    .014962    .017892
             Random switching times for energization number  89  :
                                   1  1.2728942E-02    2  1.3934291E-02    3  1.1951855E-02
 
                   553810.349 -809490.26 719230.175 -943529.44  815264.73 -763326.42
Times of maxima :     .015034    .013791    .013075    .013506    .014954    .017909
             Random switching times for energization number  90  :
                                   1  1.2080689E-02    2  1.2332907E-02    3  1.2323369E-02
 
                    439671.16 -660685.98 528870.947 -.110752E7   769164.3 -761531.74
Times of maxima :     .033349    .012704    .013375    .013211    .015455    .034738
             Random switching times for energization number  91  :
                                   1  1.1290580E-02    2  1.3872505E-02    3  1.2204264E-02
 
                   517442.112 -657685.47  669578.73  -988514.7 883515.225 -761696.09
Times of maxima :     .015067    .012582    .013237    .013217    .014891    .017888
             Random switching times for energization number  92  :
                                   1  1.2970344E-02    2  1.2088274E-02    3  1.3163409E-02
 
                   446559.456 -667379.72 439673.991 -.104077E7 926336.559 -764992.14
Times of maxima :     .016691    .013992    .027793    .013987    .013988    .018015
             Random switching times for energization number  93  :
                                   1  1.2969416E-02    2  1.3168824E-02    3  1.3297957E-02
 
                   462282.603 -723431.02 439683.333 -.100246E7 925016.519 -764798.12
Times of maxima :     .016714    .013677    .027793    .013987    .014182    .018034
             Random switching times for energization number  94  :
                                   1  1.4029673E-02    2  1.3064147E-02    3  1.2682750E-02
 
                   484437.762 -743197.56 521060.424 761860.009 .1060635E7 -761531.75
Times of maxima :     .016068    .015044    .013716    .020863    .015045    .034738
             Random switching times for energization number  95  :
                                   1  1.4097813E-02    2  1.1075736E-02    3  1.3883673E-02
 
                   466152.492 -680453.61 -444262.51 -803940.74  .104409E7 -763943.45
Times of maxima :     .014476    .015116    .019447      .0149    .015113    .018141
             Random switching times for energization number  96  :
                                   1  1.3224118E-02    2  1.2349433E-02    3  1.2807572E-02
 
                   -439726.53 -725290.68 633635.818  -971466.3 984401.709  -762128.4
Times of maxima :     .025019    .014259    .013603     .01391    .014242    .017991
             Random switching times for energization number  97  :
                                   1  1.0957912E-02    2  1.2611521E-02    3  1.1590381E-02
 
                   447710.997 -637407.34 724830.622 -.106218E7 761531.779 -761531.72
Times of maxima :      .01677    .011976    .012635    .012604     .03196    .034738
             Random switching times for energization number  98  :
                                   1  1.3424400E-02    2  1.4252668E-02    3  1.2965232E-02
 
                   590653.389  -781117.5 631047.567 -928532.51 916486.874 -775147.49
Times of maxima :     .015438    .014479    .013803    .014086    .014925    .017873
             Random switching times for energization number  99  :
                                   1  1.2303990E-02    2  1.2200119E-02    3  1.1206935E-02
 
                   464254.463 -736033.84 788962.106 -904410.13 766941.844 -761531.71
[...]
                                 Mean = 1.68466667E+00     1.68640614E+00
                             Variance = 2.31838350E-02     2.30982802E-02
                   Standard deviation = 1.52262389E-01     1.51981184E-01
 
Statistical output of branch voltage   0.4287E+06 |-1            STDB  STDC  STDA  STDB  STDC  STDA
 
5 ) -------------------------------------------------------------------------------------------------------------------------------
Statistical distribution of peak voltage  for branch  "STDB  "  to  "STDC  ".   Base voltage  for per unit output = 4.28660705E+05
  Interval             voltage         voltage  in     Frequency    Cumulative               Per cent
    number         in per unit      physical units     (density)     frequency     .GE. current value
        35           1.7500000      7.50156234E+05             0             0          100.000000
        36           1.8000000      7.71589269E+05           107           107           64.333333
        37           1.8500000      7.93022304E+05             7           114           62.000000
        38           1.9000000      8.14455340E+05            11           125           58.333333
        39           1.9500000      8.35888375E+05            14           139           53.666667
        40           2.0000000      8.57321410E+05            22           161           46.333333
        41           2.0500000      8.78754445E+05            16           177           41.000000
        42           2.1000000      9.00187481E+05             9           186           38.000000
        43           2.1500000      9.21620516E+05            14           200           33.333333
        44           2.2000000      9.43053551E+05            14           214           28.666667
        45           2.2500000      9.64486586E+05            11           225           25.000000
        46           2.3000000      9.85919622E+05             9           234           22.000000
        47           2.3500000      1.00735266E+06            11           245           18.333333
        48           2.4000000      1.02878569E+06            10           255           15.000000
        49           2.4500000      1.05021873E+06            11           266           11.333333
        50           2.5000000      1.07165176E+06            10           276            8.000000
        51           2.5500000      1.09308480E+06             7           283            5.666667
        52           2.6000000      1.11451783E+06             7           290            3.333333
        53           2.6500000      1.13595087E+06             4           294            2.000000
        54           2.7000000      1.15738390E+06             4           298             .666667
        55           2.7500000      1.17881694E+06             2           300             .000000
Summary of preceding table follows:       Grouped data     Ungrouped data
                                 Mean = 2.04350000E+00     2.04411070E+00
                             Variance = 7.61365385E-02     7.55301371E-02
                   Standard deviation = 2.75928502E-01     2.74827468E-01
 
6 ) -------------------------------------------------------------------------------------------------------------------------------
Statistical distribution of peak voltage  for branch  "STDA  "  to  "STDB  ".   Base voltage  for per unit output = 4.28660705E+05
  Interval             voltage         voltage  in     Frequency    Cumulative               Per cent
    number         in per unit      physical units     (density)     frequency     .GE. current value
        35           1.7500000      7.50156234E+05             0             0          100.000000
        36           1.8000000      7.71589269E+05            43            43           85.666667
        37           1.8500000      7.93022304E+05            19            62           79.333333
        38           1.9000000      8.14455340E+05             8            70           76.666667
        39           1.9500000      8.35888375E+05             8            78           74.000000
        40           2.0000000      8.57321410E+05            16            94           68.666667
        41           2.0500000      8.78754445E+05            23           117           61.000000
        42           2.1000000      9.00187481E+05            14           131           56.333333
        43           2.1500000      9.21620516E+05            20           151           49.666667
        44           2.2000000      9.43053551E+05            18           169           43.666667
        45           2.2500000      9.64486586E+05            21           190           36.666667
        46           2.3000000      9.85919622E+05            21           211           29.666667
        47           2.3500000      1.00735266E+06            19           230           23.333333
        48           2.4000000      1.02878569E+06            13           243           19.000000
        49           2.4500000      1.05021873E+06            30           273            9.000000
        50           2.5000000      1.07165176E+06            14           287            4.333333
        51           2.5500000      1.09308480E+06             6           293            2.333333
        52           2.6000000      1.11451783E+06             2           295            1.666667
        53           2.6500000      1.13595087E+06             3           298             .666667
        54           2.7000000      1.15738390E+06             1           299             .333333
        55           2.7500000      1.17881694E+06             1           300             .000000
Summary of preceding table follows:       Grouped data     Ungrouped data
                                 Mean = 2.13600000E+00     2.13566108E+00
                             Variance = 5.97949833E-02     5.92882945E-02
                   Standard deviation = 2.44530128E-01     2.43491878E-01
 
7 ) -------------------------------------------------------------------------------------------------------------------------------
Statistical distribution of peak voltage  for branch  "STDC  "  to  "STDA  ".   Base voltage  for per unit output = 4.28660705E+05
  Interval             voltage         voltage  in     Frequency    Cumulative               Per cent
    number         in per unit      physical units     (density)     frequency     .GE. current value
        35           1.7500000      7.50156234E+05             0             0          100.000000
        36           1.8000000      7.71589269E+05           261           261           13.000000
        37           1.8500000      7.93022304E+05            33           294            2.000000
        38           1.9000000      8.14455340E+05             2           296            1.333333
        39           1.9500000      8.35888375E+05             0           296            1.333333
        40           2.0000000      8.57321410E+05             0           296            1.333333
        41           2.0500000      8.78754445E+05             1           297            1.000000
        42           2.1000000      9.00187481E+05             1           298             .666667
        43           2.1500000      9.21620516E+05             0           298             .666667
        44           2.2000000      9.43053551E+05             1           299             .333333
        45           2.2500000      9.64486586E+05             0           299             .333333
        46           2.3000000      9.85919622E+05             1           300             .000000
Summary of preceding table follows:       Grouped data     Ungrouped data
                                 Mean = 1.78600000E+00     1.78933686E+00
                             Variance = 2.10267559E-03     1.87348699E-03
                   Standard deviation = 4.58549407E-02     4.32837959E-02
 
8 ) -------------------------------------------------------------------------------------------------------------------------------
  SUMMARY   SUMMARY   SUMMARY   SUMMARY   SUMMARY   SUMMARY   SUMMARY   SUMMARY   SUMMARY   SUMMARY   SUMMARY   SUMMARY   SUMMARY
8 ) -------------------------------------------------------------------------------------------------------------------------------
A distribution of peak values among all output branches of the last data card that have the same base value follows.  This
statistical distribution is for the maximum of the peaks at all of these output branches having base  voltage  = 4.28660705E+05
  Interval             voltage         voltage  in     Frequency    Cumulative               Per cent
    number         in per unit      physical units     (density)     frequency     .GE. current value
        35           1.7500000      7.50156234E+05             0             0          100.000000
        36           1.8000000      7.71589269E+05            17            17           94.333333
        37           1.8500000      7.93022304E+05             2            19           93.666667
        38           1.9000000      8.14455340E+05             2            21           93.000000
        39           1.9500000      8.35888375E+05             2            23           92.333333
        40           2.0000000      8.57321410E+05            10            33           89.000000
        41           2.0500000      8.78754445E+05            16            49           83.666667
        42           2.1000000      9.00187481E+05            10            59           80.333333
        43           2.1500000      9.21620516E+05            20            79           73.666667
        44           2.2000000      9.43053551E+05            16            95           68.333333
        45           2.2500000      9.64486586E+05            25           120           60.000000
        46           2.3000000      9.85919622E+05            27           147           51.000000
        47           2.3500000      1.00735266E+06            28           175           41.666667
        48           2.4000000      1.02878569E+06            23           198           34.000000
        49           2.4500000      1.05021873E+06            41           239           20.333333
        50           2.5000000      1.07165176E+06            24           263           12.333333
        51           2.5500000      1.09308480E+06            13           276            8.000000
        52           2.6000000      1.11451783E+06             9           285            5.000000
        53           2.6500000      1.13595087E+06             7           292            2.666667
        54           2.7000000      1.15738390E+06             5           297            1.000000
        55           2.7500000      1.17881694E+06             3           300             .000000
Summary of preceding table follows:       Grouped data     Ungrouped data
                                 Mean = 2.27716667E+00     2.27690920E+00
                             Variance = 4.76959588E-02     4.72926357E-02
                   Standard deviation = 2.18394045E-01     2.17468700E-01
 
Blank card ends statistical tabulation requests.  |BLANK STATISTICS
 
                                      Sample curve symbols : "A", "B", and "C"
                                      Theoretical curve symbol : "*"
                                      Common curve symbol : "X"
 
        Switch  "X0001B"  to  "X0002B"            Switch  "X0001A"  to  "X0002A"            Switch  "X0001C"  to  "X0002C"
1.32420000E+00   switch closings per column       1.32420000E+00   closings per column       1.32420000E+00   closings per column
              Columns                                     Columns                                     Columns
          5   10   15   20   25   30                5   10   15   20   25   30                5   10   15   20   25   30
     +----+----+----+----+----+----+           +----+----+----+----+----+----+           +----+----+----+----+----+----+
    X                                         X                                         X
    X                                         X                                         X
    X                                         X                                         *C
    *A                                        *B                                        X
    |*A                                       B*                                        C*
    |A*                                       |B*                                       | X
    | A *                                     |  B*                                     | C *
    |     A *                                 |       *B                                |       *C
    |           *  A                          |         B *                             |          C*
    |                 *   A                   |                 *   B                   |                 *      C
    |                A      *                 |                       *   B             |                       X
    |                           *  A          |                         B *             |                     C     *
    |  1.3000E-02                 * A         |  1.3000E-02             B   *           |  1.3000E-02                 * C
    |                           *      A      |                          B*             |                          C*
    |                    A  *                 |                   B   *                 |                    C  *
    |                 * A                     |                 * B                     |                 X
    |        A  *                             |           *       B                     |           *    C
    |    A  *                                 |       X                                 |       X
    | A *                                     |   *B                                    | C *
    | X                                       | X                                       | X
    |*A                                       B*                                        C*
    *A                                        *B                                        X
    *A                                        X                                         X
    X                                         X                                         *C
    X                                         X                                         *C
   Time (scale = 3.33333333E-04  Sec/line)   Time (scale = 3.33333333E-04  Sec/line)   Time  (scale = 3.33333333E-04  Sec/line)
 .... Questionable Kolmogorov-Smirnov test result = 6.25698810E-01
 .... Questionable Kolmogorov-Smirnov test result = 8.25644697E-01
 .... Questionable Kolmogorov-Smirnov test result = 7.96582289E-01
 
Memory storage figures for the preceding, now-completed data case.  -------------------------------  Present   Program
A value of  "-9999"  indicates that no figure is available.         09-Feb-25  10:30:41              figure     limit  (name)
     Size List 1.   Number of electric network nodes.                                                   13      6000  (LBUS)
     Size List 2.   Number of electric network branches.                                                 9     10000  (LBRNCH)
     Size List 3.   Number of data values in R, L, C tables.                                            12    192000  (LDATA)
     Size List 4.   Number of electric network sources.                                                  3       900  (LEXCT)
     Size List 5.   Storage for [Y] and triangularized [Y].   No. times =    4     Factors =    24      48    420000  (LYMAT)
     Size List 6.   Number of entries in switch table.                  No. flops = 4                    3      1200  (LSWTCH)
     Size List 7.   Number of distinct ALPHANUMERIC data names plus program SPY variables.               3     15000  (LSIZE7)
     Size List 8.   History points of distributed lines.                                              1053    120000  (LPAST)
     Size List 9.   Number of nonlinear elements.                                                        0      2250  (LNONL)
     Size List 10.  Points of nonlinear characteristics.                                                 0      3800  (LCHAR)
     Size List 11.  Number of Type-59 S.M. outputs.                                                      0       720  (LSMOUT)
     Size List 12.  Total number of EMTP output variables.                                               6      1200  (LSIZ12)
     Size List 13.  Working space for batch/SPY plotting.                                            -9999     72800  (LSIZ13)
     Size List 14.  S.M./U.M. connections to TACS.                                                   -9999       510  (LBSTAC)
     Size List 15.  Character storage in bytes for MODELS.                                           -9999     90000  (LCTACS)
     Size List 16.  Total number of Type-59 S.M. masses.                                                 0       800  (LIMASS)
     Size List 17.  Number of Type-59 Synchronous machines.                                              0        90  (LSYN)
     Size List 18.  Branch and switch power/energy outputs.                                              0       254  (MAXPE)
     Size List 19.  Total floating-point TACS table space.                                              23    120000  (LTACST)
     Size List 20.  Non-copied recursive convolution data.                                             799    100000  (LFSEM)
     Size List 21.  Total modal/phase [T] matrix storage.                                                9      3000  (LFD)
     Size List 22.  Total recursive convolution history.                                                45     15000  (LHIST)
     Size List 23.  Giant vectors for renumbering, phasors.                                             21    192000  (LSIZ23)
     Size List 24.  Peak phases of compensation for data.                                                0       120  (LCOMP)
     Size List 25.  Total table space for all U.M usage.                                             -9999     30000  (LSPCUM)
     Size List 26.  Square of max number of coupled phases.                                              9    160000  (LSIZ26)
     Size List 28.  MODELS.  Total work space is divided into INTEGER and REAL.  1st, REAL:          -9999    210000  (LRTACS)
                             Second  and last,  statistics for INTEGER work space.                       0         0  (LITACS)
     Size List 29.  RAM disk used by "TAPSAV" table saving (limit is "LABCOM" size LTLABL).          -9999      1000  (LSIZ29)
     Size List 30.  Taku Noda frequency-dependent circuits.                                              0        19  (LSIZ30)
Timing figures characterizing central processor (CP) solution speed.  ----------------------------   CP sec  Wait sec  Real sec
     Data input time (through blank card ending branches) ....                                       0.000     0.000     0.000
     Node renumbering and phasor solution  ....                                                      0.000     0.000     0.000
     After phasor solution, but before time-step loop  ....                                          0.000     0.000     0.000
     Integration of equations (time-step loop)  ....                                               192.438     0.000   192.438
     Plotting or STATISTICS termination overlays ....                                                0.000     0.000     0.000
                                                                                                    ---------------------------
                                                                                          Totals    192.438     0.000   192.438
 
