   ---   55   cards of disk file read into card cache cells  1   onward.
 <===> Done with  "/"-card sorting by data class.    Remember that the source file appears different from interpreted input data.
Alternative Transients Program (ATP),  F77 GNU Linux or DOS.  All rights reserved by Can/Am user group of Portland, Oregon, USA.
 Date (dd-mth-yy) and time of day (hh.mm.ss) = 11-Nov-18  11.00.00    Name of disk plot file, if any, is
Consult the 860-page ATP Rule Book of the Can/Am EMTP User Group in Portland,  Oregon, USA.  Source code date is
Total size of LABCOM tables = 16446853 INTEGER words.  31 VARDIM  List Sizes follow:  6002  10K  192K  900  420K  1200  15K
  120K  2250  3800  720  2K  72800  510  800K  800  90  254  800K  100K  3K  15K  192K  120  45K  260K  600  210K  1100  19  200K
--------------------------------------------------+--------------------------------------------------------------------------------
Descriptive interpretation of input data cards.   |  Input data card images are shown below, all 80 columns, character by character
                                                  0         1         2         3         4         5         6         7         8
                                                  012345678901234567890123456789012345678901234567890123456789012345678901234567890
--------------------------------------------------+--------------------------------------------------------------------------------
Comment card.   KOMPAR > 0.                       |C data:Caso0_ReEnergizacao_Convenc_RPI.atp
Marker card preceding new EMTP data case.         |BEGIN NEW DATA CASE
Comment card.   KOMPAR > 0.                       |C $DUMMY, XYZ000
Misc. data.     1.000E-06   1.000E+00   0.000E+00 |   1.E-6      1.
Misc. data.  500  1  0  0  1  0  0  1  300  0     |     500       1       0       0       1       0       0       1     300
Statistics data.      1    1    0    0    1    0  |       1       1       0       0       1      -1                               0
Series R-L-C.   5.000E+00  7.500E-02  0.000E+00   |  X0001AX0007A                5.   75.                                         0
Series R-L-C.   5.000E+00  7.500E-02  0.000E+00   |  X0001BX0007B                5.   75.                                         0
Series R-L-C.   5.000E+00  7.500E-02  0.000E+00   |  X0001CX0007C                5.   75.                                         0
Series R-L-C.   2.000E+02  0.000E+00  0.000E+00   |  X0007AX0001A              200.                                               0
Series R-L-C.   2.000E+02  0.000E+00  0.000E+00   |  X0007BX0001B              200.                                               0
Series R-L-C.   2.000E+02  0.000E+00  0.000E+00   |  X0007CX0001C              200.                                               0
Series R-L-C.   1.516E+00  1.608E+00  0.000E+00   |  X0003BXX0008            1.5155 1608.                                         0
Series R-L-C.   1.516E+00  1.608E+00  0.000E+00   |  X0003AXX0008            1.5155 1608.                                         0
Series R-L-C.   1.516E+00  1.608E+00  0.000E+00   |  X0003CXX0008            1.5155 1608.                                         0
Series R-L-C.   3.272E-01  3.472E-01  0.000E+00   |  XX0008                   .3272 347.2                                         0
Series R-L-C.   3.000E+01  0.000E+00  0.000E+00   |  XX0009                     30.                                               0
Series R-L-C.   4.000E+02  0.000E+00  0.000E+00   |  X0002AX0010A              400.                                               0
Series R-L-C.   4.000E+02  0.000E+00  0.000E+00   |  X0002BX0010B              400.                                               0
Series R-L-C.   4.000E+02  0.000E+00  0.000E+00   |  X0002CX0010C              400.                                               0
Dynamic $INCLUDE uses fixed RAM cache to delay.   |$INSERT, C:\SimulacaoATP\EXT1.pch
J. Marti line, mode  1   parameters begin.        |-1X0010AX0006C                2.  0.00              -2 3
J. Marti line, mode  2   parameters begin.        |-2X0010BX0006A                2.  0.00              -2 3
J. Marti line, mode  3   parameters begin.        |-3X0010CX0006B                2.  0.00              -2 3
TR(1,1 )...  0.667-0.707-0.317                    |  0.66668704 -0.70710678 -0.31743981
TI(1,1 )...  0.000 0.000 0.004                    |  0.00000000  0.00000000  0.00360196
TR(2,1 )...  0.333 0.000 0.894                    |  0.33285412  0.00000000  0.89350256
TI(2,1 )... -0.016 0.000 0.010                    | -0.01627623  0.00000000  0.00954818
TR(3,1 )...  0.667 0.707-0.317                    |  0.66668704  0.70710678 -0.31743981
TI(3,1 )...  0.000 0.000 0.004                    |  0.00000000  0.00000000  0.00360196
Dynamic $INCLUDE uses fixed RAM cache to delay.   |$INSERT, C:\SimulacaoATP\CONV2.pch
J. Marti line, mode  1   parameters begin.        |-1X0004AX0005C                2.  0.00              -2 3
J. Marti line, mode  2   parameters begin.        |-2X0004BX0005A                2.  0.00              -2 3
J. Marti line, mode  3   parameters begin.        |-3X0004CX0005B                2.  0.00              -2 3
TR(1,1 )...  0.667-0.707-0.317                    |  0.66668704 -0.70710678 -0.31743981
TI(1,1 )...  0.000 0.000 0.004                    |  0.00000000  0.00000000  0.00360196
TR(2,1 )...  0.333 0.000 0.894                    |  0.33285412  0.00000000  0.89350256
TI(2,1 )... -0.016 0.000 0.010                    | -0.01627623  0.00000000  0.00954818
TR(3,1 )...  0.667 0.707-0.317                    |  0.66668704  0.70710678 -0.31743981
TI(3,1 )...  0.000 0.000 0.004                    |  0.00000000  0.00000000  0.00360196
Dynamic $INCLUDE uses fixed RAM cache to delay.   |$INSERT, C:\SimulacaoATP\EXT3.pch
J. Marti line, mode  1   parameters begin.        |-1X0005AX0003A                2.  0.00              -2 3
J. Marti line, mode  2   parameters begin.        |-2X0005BX0003B                2.  0.00              -2 3
J. Marti line, mode  3   parameters begin.        |-3X0005CX0003C                2.  0.00              -2 3
TR(1,1 )...  0.667-0.707-0.317                    |  0.66668704 -0.70710678 -0.31743981
TI(1,1 )...  0.000 0.000 0.004                    |  0.00000000  0.00000000  0.00360196
TR(2,1 )...  0.333 0.000 0.894                    |  0.33285412  0.00000000  0.89350256
TI(2,1 )... -0.016 0.000 0.010                    | -0.01627623  0.00000000  0.00954818
TR(3,1 )...  0.667 0.707-0.317                    |  0.66668704  0.70710678 -0.31743981
TI(3,1 )...  0.000 0.000 0.004                    |  0.00000000  0.00000000  0.00360196
Dynamic $INCLUDE uses fixed RAM cache to delay.   |$INSERT, C:\SimulacaoATP\CONV4.pch
J. Marti line, mode  1   parameters begin.        |-1X0006AX0004C                2.  0.00              -2 3
J. Marti line, mode  2   parameters begin.        |-2X0006BX0004A                2.  0.00              -2 3
J. Marti line, mode  3   parameters begin.        |-3X0006CX0004B                2.  0.00              -2 3
TR(1,1 )...  0.667-0.707-0.317                    |  0.66668704 -0.70710678 -0.31743981
TI(1,1 )...  0.000 0.000 0.004                    |  0.00000000  0.00000000  0.00360196
TR(2,1 )...  0.333 0.000 0.894                    |  0.33285412  0.00000000  0.89350256
TI(2,1 )... -0.016 0.000 0.010                    | -0.01627623  0.00000000  0.00954818
TR(3,1 )...  0.667 0.707-0.317                    |  0.66668704  0.70710678 -0.31743981
TI(3,1 )...  0.000 0.000 0.004                    |  0.00000000  0.00000000  0.00360196
Blank card ending branches.  IBR, NTOT = 26  27   |BLANK BRANCH
Switch.   5.50E-02  1.00E-03  0.00E+00  3.33E+03  |  X0001BX0002B      .055      .001               3333.STATISTICS               0
Switch.   5.50E-02  1.00E-03  0.00E+00  3.33E+03  |  X0001AX0002A      .055      .001               3333.STATISTICS               0
Switch.   5.50E-02  1.00E-03  0.00E+00  3.33E+03  |  X0001CX0002C      .055      .001               3333.STATISTICS               0
Switch.   1.00E-02  1.00E-03  0.00E+00  0.00E+00  |  X0003CXX0009       .01      .001                    STATISTICS               1
Switch.   7.00E-01  1.00E-03  0.00E+00  0.00E+00  |  X0001BX0002B        .7      .001                    STATISTICS               0
Switch.   7.00E-01  1.00E-03  0.00E+00  0.00E+00  |  X0001AX0002A        .7      .001                    STATISTICS               0
Switch.   7.00E-01  1.00E-03  0.00E+00  0.00E+00  |  X0001CX0002C        .7      .001                    STATISTICS               0
Switch.   0.00E+00  6.98E-01  0.00E+00  0.00E+00  |  X0002AX0010A                .698                                             0
Switch.   0.00E+00  6.98E-01  0.00E+00  0.00E+00  |  X0002BX0010B                .698                                             0
Switch.   0.00E+00  6.98E-01  0.00E+00  0.00E+00  |  X0002CX0010C                .698                                             0
Switch.   7.10E-01  0.00E+00  0.00E+00  0.00E+00  |  X0002AX0010A       .71                                                       0
Switch.   7.10E-01  0.00E+00  0.00E+00  0.00E+00  |  X0002BX0010B       .71                                                       0
Switch.   7.10E-01  0.00E+00  0.00E+00  0.00E+00  |  X0002CX0010C       .71                                                       0
Blank card ending switches.   KSWTCH = 13.        |BLANK SWITCH
Source.   4.29E+05  6.00E+01  0.00E+00 -1.00E+00  |14X0007A  428660.705       60.                                     -1.      100.
Source.   4.29E+05  6.00E+01 -1.20E+02 -1.00E+00  |14X0007B  428660.705       60.     -120.                           -1.      100.
Source.   4.29E+05  6.00E+01 -2.40E+02 -1.00E+00  |14X0007C  428660.705       60.     -240.                           -1.      100.
Blank card ends electric sources.  KCONST = 3     |BLANK SOURCE

     Total network loss  P-loss  by summing injections =   2.210312431479E+08

Card of names for time-step loop output.          |  X0003AX0003BX0003C
Output voltage differences for pairs of A6 names  |-5X0003BX0003CX0003AX0003BX0003CX0003A
Blank card ending requests for output variables.  |BLANK OUTPUT

Column headings for the  7   EMTP output variables follow.  These are divided among the 5 possible classes as follows ....
  First  6     output variables are electric-network voltage differences (upper voltage minus lower voltage);
  Next   1     output variables are branch currents (flowing from the upper node to the lower node);
   Step      Time      X0003A     X0003B     X0003C     X0003B     X0003A     X0003C     X0003C
                                                        X0003C     X0003B     X0003A     XX0009
 ***      Phasor I(0) =  2.5829391E+02                     Switch  "X0001B"  to  "X0002B"  closed in the steady-state.
 ***      Phasor I(0) =  3.4794687E+02                     Switch  "X0001A"  to  "X0002A"  closed in the steady-state.
 ***      Phasor I(0) = -6.0393989E+02                     Switch  "X0001C"  to  "X0002C"  closed in the steady-state.
 ***                    Switch  "X0002A"  to  "X0010A"  closed  after  0.00000000E+00  sec.
 ***                    Switch  "X0002B"  to  "X0010B"  closed  after  0.00000000E+00  sec.
 ***                    Switch  "X0002C"  to  "X0010C"  closed  after  0.00000000E+00  sec.
      0       0.0  302237.343 -334339.45 33264.6081 -367604.06 636576.791 -268972.74        0.0
    500     .5E-3  335632.361 -298228.56  -35303.23 -262925.33 633860.917 -370935.59        0.0
   1000     .1E-2  358525.406 -252079.35 -102932.13 -149147.21 610604.752 -461457.54        0.0
   1500     .0015  367975.456 -196985.58 -166802.16 -30183.422 564961.041 -534777.62        0.0
   2000      .002  496699.663 -4776.2593 -547640.15 542863.894 501475.923 -.104434E7        0.0
   2500     .0025   455684.54 165125.446 -629521.58 794647.023 290559.094 -.108521E7        0.0
   3000      .003  378311.882  289752.06 -676198.02 965950.083 88559.8223 -.105451E7        0.0
   3500     .0035  272621.933  378235.79 -664201.96 .1042438E7 -105613.86 -936823.89        0.0
   4000      .004  158321.822 464901.561 -602856.59 .1067758E7 -306579.74 -761178.41        0.0
   4500     .0045  42620.7276 534619.301 -535584.51 .1070204E7 -491998.57 -578205.24        0.0
   5000      .005  -88594.336  576456.65 -453024.51 .1029481E7 -665050.99 -364430.18        0.0
   5500     .0055  -279099.84 553365.062 -249622.21 802987.269  -832464.9 29477.6295        0.0
   6000      .006  -407438.27 483643.633  -57982.21 541625.843  -891081.9 349456.056        0.0
   6500     .0065  -483623.22 409088.446 100956.496  308131.95 -892711.67 584579.717        0.0
   7000      .007  -526236.98 337301.026 214395.285 122905.741   -863538. 740632.262        0.0
   7500     .0075  -538670.86 267558.122 278974.487 -11416.365 -806228.98 817645.347        0.0
   8000      .008  -529599.26 189338.814 323373.486 -134034.67 -718938.07 852972.744        0.0
   8500     .0085  -500200.78 104550.142  357116.61 -252566.47 -604750.92 857317.388        0.0
   9000      .009   -425435.1 29408.1175 347262.131 -317854.01 -454843.22 772697.234        0.0
   9500     .0095   -338821.9 -20888.868 313631.981 -334520.85 -317933.03 652453.878        0.0
  10000       .01  -263716.91 -60739.252 280548.532 -341287.78 -202977.65 544265.437        0.0
 ***                                                             Close switch  "X0003C"  to  "XX0009"  after  1.00010000E-02  sec.
  10500     .0105  -261502.12 -169540.61 25263.4758 -194804.09 -91961.509 286765.598 842.115859
  11000      .011  -210960.36 -223188.35 27002.1151 -250190.47 12227.9932 237962.476 900.070504
  11500     .0115  -161528.55 -286866.09 30248.7712 -317114.86 125337.531 191777.325 1008.29237
  12000      .012  -119692.05  -357491.7 35599.8774 -393091.57 237799.648 155291.924 1186.66258
  12500     .0125  -80436.111 -408039.01  39713.699 -447752.71 327602.898  120149.81 1323.78997
  13000      .013  -28716.684  -456530.3 42417.0819 -498947.38 427813.613 71133.7656 1413.90273
  13500     .0135  -20684.765 -516937.73  45880.595 -562818.33 496252.969   66565.36 1529.35317
  14000      .014  -16538.075 -611163.33 55573.6218 -666736.95 594625.252 72111.6969 1852.45406
  14500     .0145  99246.4404 -588687.19 62342.1111 -651029.31 687933.635 -36904.329 2078.07037
  15000      .015  211602.941 -532933.23 63267.0119 -596200.24 744536.166 -148335.93  2108.9004
  15500     .0155  307155.957 -460482.36 58208.4964 -518690.86  767638.32 -248947.46 1940.28321
  16000      .016  401137.454 -373256.91  50366.509 -423623.41  774394.36 -350770.95 1678.88363
  16500     .0165  488738.711  -265990.8 41232.5978  -307223.4 754729.514 -447506.11 1374.41993
  17000      .017  565897.427 -136614.65    29815.5 -166430.15  702512.08 -536081.93 993.850001
  17500     .0175  613932.608 780.597901 17572.4575  -16791.86  613152.01 -596360.15 585.748583
  18000      .018    625478.6 144361.791 9307.85357 135053.937  481116.81 -616170.75 310.261786
  18500     .0185  606586.959 278553.319 3796.99361 274756.326  328033.64 -602789.97 126.566454
  19000      .019  554671.274 387427.185 -3439.9312 390867.116 167244.088  -558111.2 -114.66437
  19500     .0195  473295.359 472736.138  -11985.39 484721.527 559.220848 -485280.75 -399.51298
  20000       .02  365540.571 533517.898  -20891.74 554409.638 -167977.33 -386432.31 -696.39133
  20500     .0205  242125.715 569307.472 -29572.055 598879.527 -327181.76 -271697.77 -985.73517
  21000      .021  112959.149 580501.008 -37966.214 618467.222 -467541.86 -150925.36 -1265.5405
  21500     .0215  -21295.876 560595.211 -45234.594 605829.805 -581891.09 -23938.718 -1507.8198
  22000      .022  -152900.76 514272.265 -49810.437 564082.702 -667173.02 103090.318 -1660.3479
  22500     .0225  -266558.86 458293.249 -51624.192 509917.441 -724852.11 214934.667 -1720.8064
  23000      .023  -356671.82 400315.969 -51127.323 451443.291 -756987.79 305544.499 -1704.2441
  23500     .0235  -424044.66 338898.696 -48923.427 387822.122 -762943.36 375121.238 -1630.7809
  24000      .024  -470864.68 272704.721 -45172.178 317876.899  -743569.4 425692.503 -1505.7393
  24500     .0245  -498475.41 202605.341 -39953.653 242558.994 -701080.75 458521.754 -1331.7884
  25000      .025  -508038.37 130598.804 -33670.488 164269.292 -638637.17 474367.882 -1122.3496
  25500     .0255   -503266.9  56207.493 -26450.447 82657.9403  -559474.4 476816.456 -881.68158
  26000      .026   -486298.7 -21033.248 -17854.495 -3178.7528 -465265.45 468444.203 -595.14983
  26500     .0265  -458623.99 -101856.85 -7776.7933 -94080.059 -356767.14 450847.197 -259.22644
  27000      .027  -421961.31 -186195.79 3158.83246 -189354.62 -235765.52 425120.145 105.294415
  27500     .0275  -376871.29 -271775.93 14169.0348 -285944.96 -105095.36 391040.325 472.301161
  28000      .028  -322944.35 -354796.12 24659.2189 -379455.34 31851.7759 347603.567 821.973965
  28500     .0285  -259123.54  -430409.6 34157.8658 -464567.47 171286.065 293281.405 1138.59553
  29000      .029  -184912.23 -493876.14 42188.2005 -536064.34 308963.916 227100.427 1406.27335
  29500     .0295  -102063.81 -541706.48 48443.8414 -590150.32 439642.666 150507.656 1614.79471
  30000       .03  -12848.073 -570406.37 52886.2256 -623292.59 557558.294 65734.2985 1762.87419
  30500     .0305  81175.4266 -575984.63 55555.7173 -631540.35 657160.061 -25619.709 1851.85724
  31000      .031  178032.978 -555427.92 56469.3058 -611897.23 733460.897 -121563.67 1882.31019
  31500     .0315  274021.123  -508323.3 55611.2262 -563934.52 782344.421  -218409.9 1853.70754
  32000      .032  364096.014 -436965.65 52994.5667 -489960.21 801061.662 -311101.45 1766.48556
  32500     .0325  443142.281 -345372.16 48673.0307 -394045.19 788514.439 -394469.25 1622.43436
  33000      .033  506682.112 -238612.96 42705.2551 -281318.21 745295.069 -463976.86  1423.5085
  33500     .0335  550924.673 -122595.94 35227.5121 -157823.45 673520.609 -515697.16  1174.2504
  34000      .034  573037.649 -3554.7754 26536.6585 -30091.434 576592.424 -546500.99 884.555284
  34500     .0345  571336.479 112395.688 17032.1314 95363.5566 458940.791 -554304.35 567.737712
  35000      .035  545519.976 219713.621 7096.94965 212616.671 325806.355 -538423.03 236.564988
  35500     .0355  496823.785 313972.289  -2939.179 316911.468 182851.496 -499762.96 -97.972635
  36000      .036  427902.472 392189.773 -12766.909 404956.683 35712.6989 -440669.38 -425.56365
  36500     .0365  342554.232 452843.565 -22084.885 474928.451 -110289.33 -364639.12 -736.16284
  37000      .037  245212.029 495506.926 -30618.332 526125.258  -250294.9 -275830.36 -1020.6111
  37500     .0375   140406.73 520365.418 -38112.914 558478.333 -379958.69 -178519.64 -1270.4305
  38000      .038  32588.7477 528022.789 -44314.395 572337.184 -495434.04 -76903.142 -1477.1465
  38500     .0385  -73894.915  519509.59 -48973.645 568483.235 -593404.51 24921.2705 -1632.4548
  39000      .039  -174978.61 496156.576  -51874.74 548031.316 -671135.19 123103.872  -1729.158
  39500     .0395   -267185.8 459262.229 -52864.137 512126.366 -726448.03 214321.665 -1762.1379
  40000       .04   -347804.2 409853.497 -51866.581 461720.078  -757657.7 295937.622  -1728.886
  40500     .0405  -414814.67 348748.387 -48895.753 397644.139 -763563.05 365918.915 -1629.8584
  41000      .041    -466754. 276791.368  -44062.47 320853.839 -743545.37 422691.529  -1468.749
  41500     .0415  -502639.24 195091.758 -37564.108 232655.866   -697731. 465075.134 -1252.1369
  42000      .042  -521917.45 105202.631  -29657.41 134860.041 -627120.08 492260.041 -988.58033
  % % % % % %   Suspended simulation;  plot data space exhausted;  SPY SPACE is required.   LIMBUF =  340000.
  % % % % % %   Suspended simulation;  plot data space exhausted;  SPY SPACE is required.   LIMBUF =  340000.
  +++  Time-sharing disabled.   Send  user-keyed interrupt to silence alarm.
   Current values.  INDBUF  INDBEG  LIMBUF  MFLUSH  NUMDCD  KCARD1  KCARD2
                    339994      50  340000    1000      46       1      50
Plot timespan now in memory (in sec) = 0.00000000E+00   4.24930000E-02
   ++++  Begin plot-data copy from memory to disk.   MFLUSH, INDBUF, N4, Tbeg,  Tend = 1001  339994       1  -1.00000E+00
1.00000E+19
  42500     .0425  -524411.21 9223.20565 -20636.733 29859.9386 -533634.42 503774.478  -687.8911
  43000      .043  -510265.49 -90149.358 -10827.754 -79321.604 -420116.13 499437.739 -360.92512
  43500     .0435  -479915.77 -189610.34 -584.51938 -189025.82 -290305.43 479331.254 -19.483979
  44000      .044  -434087.55 -285316.38 9721.71558  -295038.1 -148771.17 443809.265 324.057186
  44500     .0445  -373825.59 -373074.29 19717.3777 -392791.67 -751.30167 393542.971 657.245923
  45000      .045  -300565.61 -448663.55 29039.0307 -477702.58 148097.943 329604.637 967.967689
  45500     .0455  -216222.84  -508226.6 37346.4626 -545573.06 292003.764 253569.298 1244.88209
  46000      .046   -123234.6   -548614. 44338.7283 -592952.73 425379.402 167573.324 1477.95761
  46500     .0465  -24523.721 -567621.88 49769.2799 -617391.16 543098.158 74293.0004   1658.976
  47000      .047  76592.9789 -564137.16 53455.7375  -617592.9 640730.137 -23137.241 1781.85792
  47500     .0475   176513.87 -538221.46 55283.9167 -593505.38 714735.333 -121229.95 1842.79722
  48000      .048  271480.854  -491119.1 55208.0251 -546327.13 762599.954 -216272.83  1840.2675
  48500     .0485  357748.059 -425154.13 53247.5589 -478401.69 782902.191  -304500.5 1774.91863
  49000      .049  431783.051 -343520.87 49481.5359 -393002.41 775303.925 -382301.52 1649.38453
  49500     .0495  490471.116 -250012.44  44042.997 -294055.44  740483.56 -446428.12  1468.0999
  50000       .05  531296.086 -148738.71 37115.9116 -185854.63   680034.8 -494180.17 1237.19705
  50500     .0505  552481.888 -43868.974 28932.8925 -72801.866 596350.861   -523549. 964.429751
  51000      .051  553088.339 60584.0561  19770.517 40813.5391 492504.283 -533317.82 659.017232
  51500     .0515  533059.476  160932.13 9941.35055  150990.78 372127.346 -523118.13 331.378352
  52000      .052  493224.187 253926.705 -215.98717 254142.692 239297.482 -493440.17 -7.1995722
  52500     .0525  435247.935 336816.954 -10347.941 347164.895 98430.9807 -445595.88 -344.93137
  53000      .053  361533.659 407350.829 -20098.458 427449.287  -45817.17 -381632.12 -669.94861
  53500     .0535  275078.279  463733.59 -29122.275 492855.865 -188655.31 -304200.55  -970.7425
  54000      .054  179304.054 504572.309 -37097.849 541670.157 -325268.25  -216401.9  -1236.595
  54500     .0545  77887.2396  528835.09  -43739.06  572574.15 -450947.85  -121626.3 -1457.9687
  55000      .055  -25403.056 535839.517 -48805.498 584645.015 -561242.57 -23402.442 -1626.8499
  55500     .0555  -126853.11 525269.045  -52111.33 577380.375 -652122.15 74741.7754 -1737.0443
  56000      .056  -222937.47 497210.724 -53532.546  550743.27  -720148.2 169404.927 -1784.4182
  56500     .0565  -310430.19  452208.38 -53012.404 505220.783 -762638.57 257417.784 -1767.0801
 ***                                                             Open  switch  "X0001B"  to  "X0002B"  after  5.65300000E-02  sec.
  57000      .057  -386489.25 391322.773 -50564.823 441887.596 -777812.03  335924.43 -1685.4941
  57500     .0575  -448715.87 316184.049 -46275.139 362459.187 -764899.92  402440.73 -1542.5046
  58000      .058  -495194.73 229017.919 -40297.554 269315.473 -724212.64 454897.172 -1343.2518
  58500     .0585  -532850.51 152431.878 -33719.992  186151.87 -685282.39  499130.52 -1123.9997
  59000      .059  -547276.13 97564.2483 -25762.557 123326.805 -644840.38 521513.578 -858.75188
  59500     .0595  -538386.85 44125.7232 -16352.946 60478.6688 -582512.57 522033.906 -545.09819
 ***                                                             Open  switch  "X0001A"  to  "X0002A"  after  5.95180000E-02  sec.
  60000       .06  -512011.91 -15065.828 -6327.3383 -8738.4898 -496946.08 505684.572 -210.91128
 ***                                                             Open  switch  "X0001C"  to  "X0002C"  after  6.00410000E-02  sec.
  60500     .0605  -470370.64 -79887.541 3993.89748 -83881.438  -390483.1  474364.54 133.129916
  61000      .061  -412444.33 -148452.12 14257.1114 -162709.23 -263992.21  426701.44 475.237047
  61500     .0615  -358058.61 -217739.43 25019.0749 -242758.51 -140319.18 383077.688 833.969162
  62000      .062  -301042.38 -251465.68  31264.144 -282729.82 -49576.699  332306.52 1042.13813
  62500     .0625  -241262.92  -278615.9 28412.1031   -307028. 37352.9807 269675.019 947.070104
  63000      .063  -181291.11 -315145.55 23158.1809 -338303.73 133854.443 204449.288 771.939362
  63500     .0635  -106956.57 -349003.12 17606.1549 -366609.28 242046.548 124562.728 586.871829
  64000      .064  -20721.683 -376622.61 10992.0885 -387614.69 355900.923 31713.7714  366.40295
  64500     .0645  68230.1823 -404331.46   3676.766 -408008.22 472561.641 -64553.416 122.558867
  65000      .065  143941.195 -424783.41  -3460.611  -421322.8 568724.605 -147401.81  -115.3537
  65500     .0655  192880.683 -432331.61 -9782.9303 -422548.68 625212.297 -202663.61 -326.09768
  66000      .066  208959.983 -459450.68 -12756.298 -446694.38 668410.663 -221716.28 -425.20995
  66500     .0665  254082.492 -465576.66 -12569.186 -453007.48 719659.157 -266651.68 -418.97288
  67000      .067  309948.085 -458579.93 -11082.659 -447497.27 768528.014 -321030.74 -369.42198
  67500     .0675  364537.657 -446821.24 -8643.0493 -438178.19 811358.897 -373180.71 -288.10164
  68000      .068  412810.803 -435119.51 -4621.3599 -430498.15 847930.316 -417432.16 -154.04533
  68500     .0685  442868.941 -404722.97 609.848188 -405332.82 847591.915 -442259.09 20.3282729
  69000      .069  451128.565 -356799.06 5985.41835 -362784.48 807927.624 -445143.15 199.513945
  69500     .0695  458724.777 -304503.19 10654.4078  -315157.6 763227.966 -448070.37 355.146927
  70000       .07  475660.102 -248474.83 11823.0277 -260297.86 724134.935 -463837.07 394.100924
  70500     .0705  480421.806 -197572.17 11198.5191 -208770.68 677993.971 -469223.29  373.28397
  71000      .071  483669.754 -143606.96  10368.077 -153975.03 627276.711 -473301.68 345.602565
  71500     .0715  484429.693 -85604.952 8987.78697 -94592.739 570034.645 -475441.91 299.592899
  72000      .072  461407.614  -14190.54 6507.51495 -20698.055 475598.154  -454900.1 216.917165
  72500     .0725  418654.005 61476.2493 3223.53585 58252.7135 357177.756 -415430.47 107.451195
  73000      .073  374808.068 128830.604 -359.70485 129190.309 245977.464 -375167.77 -11.990162
  73500     .0735   321372.77 176657.355 -2870.5601 179527.915 144715.415 -324243.33 -95.685336
  74000      .074  268693.024 220516.958 -3976.1617 224493.119 48176.0667 -272669.19 -132.53872
  74500     .0745  221516.902 264096.045 -4494.1062 268590.152 -42579.144 -226011.01 -149.80354
  75000      .075  170396.261 303659.998 -4354.6844 308014.682 -133263.74 -174750.95 -145.15615
  75500     .0755  97668.4318 347519.489 -3272.1792 350791.668 -249851.06 -100940.61 -109.07264
  76000      .076  19959.7043 391321.306 -1457.4258 392778.732  -371361.6  -21417.13  -48.58086
  76500     .0765  -49002.258 423568.812 723.203198 422845.608 -472571.07 49725.4607 24.1067733
  77000      .077  -110581.78 442278.421 3198.02319 439080.397  -552860.2 113779.806 106.600773
  77500     .0775  -162130.83 453343.664 4772.45307 448571.211 -615474.49 166903.283 159.081769
  78000      .078   -211894.9  451515.88 5483.23157 446032.649 -663410.78 217378.128 182.774386
  78500     .0785  -261027.96 445154.844 6147.32584 439007.518 -706182.81 267175.291 204.910861
  79000      .079  -316855.93 445130.399 6495.83171 438634.567 -761986.33 323351.758 216.527724
  79500     .0795  -366817.83 441982.436 5862.06594  436120.37 -808800.27 372679.898 195.402198
  80000       .08  -403666.52 423898.683  4608.0417 419290.642 -827565.21 408274.565  153.60139
  80500     .0805  -428045.45 392711.075 3200.11268 389510.962 -820756.53 431245.566 106.670423
  81000      .081  -445192.35 348637.687 1924.58247 346713.104 -793830.03 447116.929  64.152749
  81500     .0815  -455145.87 294622.866 1202.16291 293420.703 -749768.73  456348.03  40.072097
  82000      .082  -461130.77 242514.404  723.04191 241791.362 -703645.18 461853.815  24.101397
  82500     .0825  -469460.22 197005.646 216.981961 196788.664 -666465.86 469677.201 7.23273204
  83000      .083  -470046.63 147485.774 -109.51467 147595.289 -617532.41 469937.119 -3.6504889
  83500     .0835  -454090.52 89864.0917 125.088476 89739.0032 -543954.61 454215.605 4.16961587
  84000      .084  -424537.99 27851.5356 810.049573  27041.486 -452389.52 425348.039 27.0016524
  84500     .0845  -386324.34 -37400.034 1778.12391 -39178.158 -348924.31 388102.464 59.2707968
  % % % % % %   Suspended simulation;  plot data space exhausted;  SPY SPACE is required.   LIMBUF =  340000.
  % % % % % %   Suspended simulation;  plot data space exhausted;  SPY SPACE is required.   LIMBUF =  340000.
  +++  Time-sharing disabled.   Send  user-keyed interrupt to silence alarm.
   Current values.  INDBUF  INDBEG  LIMBUF  MFLUSH  NUMDCD  KCARD1  KCARD2
                    339994      50  340000    1001      46       1      50
Plot timespan now in memory (in sec) = 4.24919985E-02   8.49850000E-02
   ++++  Begin plot-data copy from memory to disk.   MFLUSH, INDBUF, N4, Tbeg,  Tend = 1002  339994       1  -1.00000E+00
1.00000E+19
  85000      .085  -339559.38 -103301.38 2736.07368 -106037.46   -236258. 342295.458 91.2024562
  85500     .0855  -297060.15 -162283.05 3423.98564 -165707.04 -134777.09 300484.133 114.132855
  86000      .086  -258125.33 -210895.67 3846.87374 -214742.55 -47229.654   261972.2 128.229125
  86500     .0865  -210223.11 -255973.48 4034.32172  -260007.8 45750.3633 214257.436 134.477391
  87000      .087  -149308.42 -299953.58 3914.45688 -303868.04 150645.154 153222.882 130.481896
  87500     .0875  -82855.243 -342121.78  3531.5245  -345653.3 259266.537 86386.7674 117.717483
  88000      .088  -14343.785 -380808.44 3036.64049 -383845.09 366464.659 17380.4259  101.22135
  88500     .0885  53188.3871 -415315.75  2578.8639 -417894.61 468504.136 -50609.523   85.96213
  89000      .089  108055.572 -437248.68 2230.30611 -439478.99 545304.251 -105825.27 74.3435371
  89500     .0895  155990.455 -445854.93 1712.81435 -447567.75 601845.387 -154277.64 57.0938115
  90000       .09  206727.569   -449023. 1012.23254 -450035.23  655750.57 -205715.34 33.7410846
  90500     .0905  260108.681 -449152.65 451.484732 -449604.14 709261.332  -259657.2 15.0494911
  91000      .091   311358.18 -444167.75 251.008478 -444418.76 755525.933 -311107.17 8.36694927
  91500     .0915  358601.427 -432422.13 342.228291 -432764.36 791023.559  -358259.2 11.4076097
  92000      .092  397475.226 -413570.38 694.960387 -414265.34 811045.609 -396780.27 23.1653462
  92500     .0925  419711.894 -380897.15 1104.03957 -382001.19 800609.045 -418607.85 36.8013188
  93000      .093  431169.852 -338937.75 1278.66732 -340216.42 770107.603 -429891.19  42.622244
  93500     .0935  440733.014   -295106. 1336.72209 -296442.73 735839.019 -439396.29 44.5574031
  94000      .094  448756.734 -249557.06 1465.47692 -251022.54 698313.793 -447291.26 48.8492308
  94500     .0945  452331.159 -200366.75 1573.94808  -201940.7 652697.914 -450757.21 52.4649359
  95000      .095  448700.434 -148659.37 1603.23776 -150262.61 597359.808  -447097.2 53.4412586
  95500     .0955  433499.669 -93287.023 1645.05801 -94932.081 526786.693 -431854.61 54.8352668
  96000      .096  402171.406 -30309.469 1600.42808 -31909.897 432480.874 -400570.98 53.3476025
  96500     .0965  362254.082 33819.6385 1384.33165 32435.3068 328434.444 -360869.75 46.1443884
  97000      .097  322441.812 93154.8494 1091.46744 92063.3819 229286.963 -321350.34  36.382248
  97500     .0975  282048.286 147859.372 808.410547 147050.962 134188.914 -281239.88 26.9470182
  98000      .098   238476.37 199081.714 575.334277  198506.38 39394.6562 -237901.04 19.1778092
  98500     .0985  190818.124  245911.17 531.482202 245379.687 -55093.045 -190286.64 17.7160734
  99000      .099  135401.076 291709.205 676.300729 291032.905 -156308.13 -134724.78 22.5433576
  99500     .0995  70899.6124 338000.214 829.332199 337170.882  -267100.6  -70070.28 27.6444066
 100000       0.1  6079.37946 378091.119 899.908124 377191.211 -372011.74 -5179.4713 29.9969375
 100500     .1005  -52669.185 407345.157  961.75531 406383.401 -460014.34 53630.9401 32.0585103
 101000      .101  -106956.12 426802.954 1097.59671 425705.357 -533759.08 108053.719  36.586557
 101500     .1015  -158304.08 438559.114 1298.28811 437260.826  -596863.2  159602.37 43.2762705
 102000      .102  -206516.78 442942.159 1562.29635 441379.862 -649458.93 208079.073  52.076545
 102500     .1025  -256515.23 444021.197 1807.70382 442213.493 -700536.43 258322.938  60.256794
 103000      .103  -307292.86 441876.744 1917.72472 439959.019  -749169.6 309210.581 63.9241574
 103500     .1035  -350197.06 430738.756 1888.44905 428850.307 -780935.81 352085.508 62.9483017
 104000      .104  -381561.75  408108.06 1839.93993  406268.12 -789669.81 383401.692 61.3313312
 104500     .1045  -403700.55 376318.129  1822.9079 374495.221 -780018.68 405523.456 60.7635966
 105000      .105  -418491.14 337850.097 1798.83218 336051.265 -756341.24 420289.973 59.9610727
 105500     .1055  -426830.36 293916.458 1801.93559 292114.523 -720746.82 428632.297 60.0645198
 106000      .106   -433911.1 249396.681 1834.38698 247562.294 -683307.78 435745.485 61.1462326
 106500     .1065  -436885.96 204058.319 1798.98336 202259.335 -640944.28 438684.942  59.966112
 107000      .107  -428657.21 153150.349 1699.48388 151450.865 -581807.56  430356.69 56.6494626
 107500     .1075  -408304.91 96032.1016 1644.98941 94387.1122 -504337.01 409949.902 54.8329805
 108000      .108  -379206.53  35634.906 1655.93109 33978.9749 -414841.44 380862.464  55.197703
 108500     .1085  -343896.57 -25705.135 1711.13718 -27416.273 -318191.43 345607.704 57.0379059
 109000      .109  -304540.34 -85699.383 1824.37439 -87523.757 -218840.96 306364.719 60.8124797
 109500     .1095  -265609.65 -139577.08 1923.73497 -141500.81 -126032.57 267533.382 64.1244992
 110000       .11  -223883.23 -188753.19 1888.19321 -190641.38 -35130.041 225771.419 62.9397736
 110500     .1105  -174241.13 -237372.03  1770.5602 -239142.59 63130.9013 176011.692 59.0186733
 111000      .111  -117698.87 -284995.15 1684.51804 -286679.66  167296.28 119383.384 56.1506012
 111500     .1115  -58225.568 -328838.21 1634.44905 -330472.66 270612.643 59860.0173 54.4816349
 112000      .112  1613.07081 -367355.25 1607.38709 -368962.64 368968.323 -5.6837189 53.5795697
 112500     .1125  58539.4849  -398109.7 1594.55079 -399704.25 456649.187 -56944.934 53.1516929
 113000      .113  109261.804 -417990.05 1519.87206 -419509.92 527251.853 -107741.93 50.6624019
 113500     .1135  157529.007 -429847.41 1334.67469 -431182.09 587376.417 -156194.33 44.4891563
 114000      .114  207380.714 -437266.83  1129.0666 -438395.89  644647.54 -206251.65 37.6355533
 114500     .1145  256843.637 -439706.38 987.436569 -440693.82 696550.019  -255856.2 32.9145523
 115000      .115  302160.562 -435284.43 901.157567 -436185.59 737444.992  -301259.4 30.0385856
 115500     .1155  341458.271 -423671.71 870.939206 -424542.65  765129.98 -340587.33 29.0313069
 116000      .116  371294.026 -402883.41  882.48953  -403765.9 774177.431 -370411.54 29.4163177
 116500     .1165  390451.689 -371855.16 852.335445  -372707.5 762306.852 -389599.35 28.4111815
 117000      .117  403733.821 -334628.14 741.998099 -335370.14 738361.959 -402991.82   24.73327
 117500     .1175  414438.717  -294565.5 624.446748 -295189.94 709004.212 -413814.27 20.8148916
 118000      .118  420492.738 -251480.03  564.87885 -252044.91 671972.766 -419927.86  18.829295
 118500     .1185  419229.214 -204390.83 554.631005 -204945.46 623620.046 -418674.58 18.4877002
 119000      .119  409866.478 -153788.81 593.454013 -154382.27 563655.289 -409273.02 19.7818004
 119500     .1195  389693.144 -98210.854 651.446234   -98862.3 487903.997  -389041.7 21.7148745
 120000       .12  359696.289 -38353.477 641.786224 -38995.263 398049.766  -359054.5 21.3928741
 120500     .1205  325466.416 21118.1122 552.852719 20565.2595 304348.303 -324913.56  18.428424
 121000      .121  289714.277 77411.4527 472.758255 76938.6944 212302.824 -289241.52 15.7586085
 121500     .1215  250882.143 130911.594 455.779019 130455.815 119970.549 -250426.36  15.192634
 122000      .122  207522.888 182191.036 486.842734 181704.194 25331.8513 -207036.04 16.2280911
 122500     .1225  159507.195 230766.342 563.646391 230202.695 -71259.146 -158943.55  18.788213
 123000      .123  105109.816  277961.14 653.093814 277308.046 -172851.32 -104456.72 21.7697938
 123500     .1235  46965.2394 322241.348 682.287789  321559.06 -275276.11 -46282.952 22.7429263
 124000      .124  -9255.6129 359406.189 662.911917 358743.277  -368661.8 9918.52477 22.0970639
 124500     .1245  -61640.515 387927.619    673.003 387254.616 -449568.13 62313.5185 22.4334333
 125000      .125  -111602.98  408934.71   734.1465 408200.564 -520537.69 112337.128   24.47155
 125500     .1255  -160001.19 423166.287 829.592669 422336.694 -583167.48 160830.784  27.653089
 126000      .126  -207094.88 431038.402 957.228981 430081.173 -638133.28 208052.112 31.9076327
 126500     .1265  -253933.08 434187.849 1074.26706 433113.582 -688120.93 255007.351 35.8089019
 127000      .127   -297251.8 431064.863 1118.37754 429946.486 -728316.67 298370.182 37.2792514
  % % % % % %   Suspended simulation;  plot data space exhausted;  SPY SPACE is required.   LIMBUF =  340000.
  % % % % % %   Suspended simulation;  plot data space exhausted;  SPY SPACE is required.   LIMBUF =  340000.
  +++  Time-sharing disabled.   Send  user-keyed interrupt to silence alarm.
   Current values.  INDBUF  INDBEG  LIMBUF  MFLUSH  NUMDCD  KCARD1  KCARD2
                    339994      50  340000    1002      46       1      50
Plot timespan now in memory (in sec) = 8.49839970E-02   1.27477000E-01
   ++++  Begin plot-data copy from memory to disk.   MFLUSH, INDBUF, N4, Tbeg,  Tend = 1003  339994       1  -1.00000E+00
1.00000E+19
 127500     .1275   -332346.9  418673.18 1116.77493 417556.405 -751020.08 333463.676 37.2258309
 128000      .128  -358673.17 397003.053 1138.11338 395864.939 -755676.22 359811.286 37.9371127
 128500     .1285  -378153.63 368114.585  1190.5768 366924.008 -746268.22 379344.212 39.6858933
 129000      .129  -391703.81 333273.192 1265.09363 332008.099 -724977.01 392968.908 42.1697875
 129500     .1295  -400399.61 294040.526  1354.9127 292685.613 -694440.14 401754.528 45.1637567
 130000       .13  -405146.72  252279.17 1411.59272 250867.577 -657425.89 406558.315 47.0530908
 130500     .1305  -402927.24 206655.541  1395.4238 205260.118 -609582.78 404322.666 46.5141268
 131000      .131  -390676.71 155457.461 1351.40118  154106.06 -546134.18 392028.116 45.0467059
 131500     .1315   -369408.1 99870.9795 1338.22316 98532.7563 -469279.08 370746.324 44.6074387
 132000      .132  -341761.88 42482.4942 1351.91185 41130.5823 -384244.37 343113.789 45.0637284
 132500     .1325  -309074.45  -15200.16 1381.89762 -16582.057 -293874.29 310456.347  46.063254
 133000      .133  -273360.59 -71053.022 1415.50079 -72468.523 -202307.57  274776.09 47.1833595
 133500     .1335  -235456.89  -123557.8 1405.12359 -124962.92 -111899.09 236862.009 46.8374531
 134000      .134  -192818.08 -174141.77 1330.74491 -175472.51 -18676.311 194148.822 44.3581636
 134500     .1345  -143972.82 -223806.56 1243.80001 -225050.36  79833.741 145216.622 41.4600002
 135000      .135  -91083.089 -271005.18 1188.34076 -272193.52 179922.089 92271.4298 39.6113586
 135500     .1355  -37103.235 -313482.36 1153.83175 -314636.19 276379.122 38257.0671 38.4610584
 136000      .136   16400.273  -350124.5 1131.70517 -351256.21 366524.778 -15268.568 37.7235058
 136500     .1365  67126.7866 -379126.57 1106.74143 -380233.31 446253.354 -66020.045  36.891381
 137000      .137  114763.845 -400019.15 1034.35548 -401053.51 514782.996 -113729.49 34.4785159
 137500     .1375  161686.448 -414829.35 911.732354 -415741.09 576515.803 -160774.72 30.3910785
 138000      .138  208425.067 -424559.81 795.381478 -425355.19 632984.874 -207629.69 26.5127159
 138500     .1385  252546.822 -428058.69 717.991009 -428776.68 680605.509 -251828.83 23.9330336
 139000      .139  291597.071 -424072.81 667.275091 -424740.09 715669.881  -290929.8  22.242503
 139500     .1395  324343.079 -412294.06 634.867303 -412928.93 736637.139 -323708.21 21.1622434
 140000       .14  349109.161 -391846.87 599.675515 -392446.54 740956.027 -348509.49 19.9891838
 140500     .1405  366663.274 -363639.55 522.103333 -364161.65 730302.824 -366141.17 17.4034444
 141000      .141  379661.956 -330398.25 414.308048 -330812.56 710060.204 -379247.65 13.8102683
 141500     .1415  388466.609 -293368.03  331.47946 -293699.51 681834.638 -388135.13 11.0493153
 142000      .142  391151.427 -252003.72 291.756746 -252295.47 643155.143 -390859.67 9.72522486
 142500     .1425  386359.219 -206103.93  280.60039 -206384.53 592463.145 -386078.62 9.35334632
 143000      .143  373580.827 -156016.27 288.406248 -156304.68 529597.099 -373292.42  9.6135416
 143500     .1435  352303.867 -101744.81 289.205126 -102034.02 454048.677 -352014.66 9.64017086
 144000      .144  324556.271 -45200.637 251.682888  -45452.32 369756.908 -324304.59 8.38942959
 144500     .1445  293357.665 10700.7665 198.447582 10502.3189 282656.898 -293159.22 6.61491942
 145000      .145  259190.019 64826.5548 178.137809  64648.417 194363.464 -259011.88 5.93792698
 145500     .1455  220832.391 117506.974 197.404213  117309.57 103325.417 -220634.99 6.58014043
 146000      .146  177989.838 168493.351 242.415953 168250.935 9496.48683 -177747.42 8.08053177
 146500     .1465  130754.477 217434.475 302.558851 217131.916 -86679.998 -130451.92  10.085295
 147000      .147  79629.8681 264044.038 348.561191 263695.476 -184414.17 -79281.307 11.6187064
 147500     .1475  27444.3629  306244.26  358.28053  305885.98  -278799.9 -27086.082 11.9426843
 148000      .148  -22909.498 341738.416 361.129863 341377.287 -364647.91 23270.6276 12.0376621
 148500     .1485    -71138.6  370148.21 397.139554  369751.07 -441286.81 71535.7391 13.2379851
 149000      .149  -118143.23 392217.737 464.283786 391753.453 -510360.97 118607.516 15.4761262
 149500     .1495  -163791.44  408028.89 548.706392 407480.183 -571820.33 164340.145 18.2902131
 150000       .15  -207960.39  417876.17 637.505404 417238.665 -625836.56 208597.897 21.2501801
 150500     .1505  -249787.12 421797.583 700.604529 421096.979 -671584.71 250487.728 23.3534843
 151000      .151  -286497.27 418278.451 726.072902 417552.378 -704775.72 287223.343 24.2024301
 151500     .1515  -316061.98  406203.52 747.751363 405455.768  -722265.5  316809.73 24.9250454
 152000      .152  -338929.94 386318.866 795.901148 385522.964 -725248.81 339725.843 26.5300383
 152500     .1525  -356260.77 360071.262 862.622816  359208.64 -716332.03 357123.391 28.7540939
 153000      .153  -368256.76 328240.584 935.204767 327305.379 -696497.34 369191.962 31.1734922
 153500     .1535  -375312.01 291916.043 999.892818  290916.15 -667228.05 376311.898 33.3297606
 154000      .154  -376818.48 251581.825 1029.51754 250552.307  -628400.3 377847.994 34.3172512
 154500     .1545  -370746.54 206441.751 1022.69742 205419.054 -577188.29 371769.237 34.0899141
 155000      .155  -356378.09 156480.924 1015.43071 155465.493 -512859.01 357393.522 33.8476904
 155500     .1555  -335168.35 103306.499 1028.73554 102277.764 -438474.85 336197.083 34.2911847
 156000      .156  -308781.16 48745.7547 1052.14295 47693.6118 -357526.91   309833.3 35.0714318
 156500     .1565  -278067.58 -6002.3903 1074.88323 -7077.2736 -272065.19 279142.466 35.8294411
 157000      .157  -244003.67 -59538.591 1082.38458 -60620.975 -184465.08 245086.055  36.079486
 157500     .1575  -206353.15 -111394.51  1052.2994 -112446.81 -94958.639  207405.45 35.0766467
 158000      .158  -163936.94  -162094.6 992.853449 -163087.46  -1842.337 164929.794  33.095115
 158500     .1585  -117166.09 -211199.94 939.800302 -212139.74  94033.852 118105.887 31.3266767
 159000      .159  -68173.256 -256994.53 905.934094 -257900.46 188821.271 69079.1902 30.1978031
 159500     .1595  -18804.648 -297986.32 879.894902 -298866.21 279181.667 19684.5429 29.3298301
 160000       .16  29758.2359 -333230.11 852.396781 -334082.51 362988.348 -28905.839  28.413226
 160500     .1605  76448.7434  -361792.4 808.300413  -362600.7 438241.143 -75640.443 26.9433471
 161000      .161  121552.478 -383878.51 731.661531 -384610.18 505430.992 -120820.82 24.3887177
 161500     .1615  165854.606 -400353.29 638.643797 -400991.94   566207.9 -165215.96 21.2881266
 162000      .162  208497.372 -411041.31 562.124344 -411603.44 619538.686 -207935.25 18.7374781
 162500     .1625  247414.548 -414840.78 507.725167  -415348.5 662255.323 -246906.82 16.9241722
 163000      .163  281219.326 -411168.88 463.968561 -411632.85 692388.203 -280755.36 15.4656187
 163500     .1635  309051.697 -399845.12 422.346055 -400267.47 708896.817 -308629.35 14.0782018
 164000      .164  330446.405 -380892.83 367.437722 -381260.27 711339.235 -330078.97 12.2479241
 164500     .1645  346298.435 -355491.01 289.576982 -355780.59 701789.448 -346008.86 9.65256605
 165000      .165  357569.295 -325084.05 209.891945 -325293.94 682653.344  -357359.4 6.99639816
 165500     .1655  363639.809 -290021.01 155.841268 -290176.85 653660.814 -363483.97 5.19470895
 166000      .166   363158.35 -250008.87 126.840233 -250135.71 613167.219 -363031.51 4.22800775
 166500     .1665  355649.609 -205363.65 111.297348 -205474.95 561013.258 -355538.31 3.70991159
 167000      .167  341021.105  -156606.4 100.267647 -156706.67 497627.508 -340920.84 3.34225491
 167500     .1675  319773.969 -104572.47 78.2021298 -104650.67 424346.437 -319695.77 2.60673766
 168000      .168  293597.686 -51080.286  40.986883 -51121.273 344677.972  -293556.7 1.36622943
 168500     .1685  263814.197  2208.4089 12.0434619 2196.36544 261605.788 -263802.15  .40144873
 169000      .169  230257.296 54777.6211 11.9744855 54765.6466 175479.675 -230245.32 .399149517
 169500     .1695   192402.48 106538.536 35.1603297 106503.376 85863.9445 -192367.32 1.17201099
  % % % % % %   Suspended simulation;  plot data space exhausted;  SPY SPACE is required.   LIMBUF =  340000.
  % % % % % %   Suspended simulation;  plot data space exhausted;  SPY SPACE is required.   LIMBUF =  340000.
  +++  Time-sharing disabled.   Send  user-keyed interrupt to silence alarm.
   Current values.  INDBUF  INDBEG  LIMBUF  MFLUSH  NUMDCD  KCARD1  KCARD2
                    339994      50  340000    1003      46       1      50
Plot timespan now in memory (in sec) = 1.27476007E-01   1.69969000E-01
   ++++  Begin plot-data copy from memory to disk.   MFLUSH, INDBUF, N4, Tbeg,  Tend = 1004  339994       1  -1.00000E+00
1.00000E+19
 170000       .17  150578.609 156868.965 69.9722981 156798.993 -6290.3558 -150508.64 2.33240994
 170500     .1705  105347.406 205131.352  106.46272  205024.89 -99783.946 -105240.94 3.54875733
 171000      .171  57938.0477 250327.956 129.882889 250198.073 -192389.91 -57808.165 4.32942963
 171500     .1715   10438.698  290761.11   141.1841 290619.925 -280322.41 -10297.514 4.70613667
 172000      .172  -35830.212 325256.663 163.938565 325092.724 -361086.88 35994.1506 5.46461883
 172500     .1725  -80931.192 353780.203 211.601851 353568.601  -434711.4 81142.7942 7.05339504
 173000      .173  -125012.74 376530.467 275.094497 376255.372 -501543.21 125287.838 9.16981656
 173500     .1735  -167540.94 393310.123 343.255798 392966.867 -560851.06 167884.198 11.4418599
 174000      .174  -207866.26 404007.604 405.370586 403602.233 -611873.87 208271.633 13.5123529
 174500     .1745   -244686.4 408109.425 448.788486 407660.636 -652795.83  245135.19 14.9596162
 175000      .175   -276236.5 404684.187 479.177021  404205.01 -680920.69 276715.681 15.9725674
 175500     .1755  -301813.98 393550.424   518.8845 393031.539  -695364.4 302332.865   17.29615
 176000      .176  -321938.26 375542.927 575.215107 374967.712 -697481.19 322513.475 19.1738369
 176500     .1765  -336997.11 351511.019 637.553337 350873.465 -688508.13 337634.664 21.2517779
 177000      .177  -346893.28 322006.675 695.934978  321310.74 -668899.95 347589.212 23.1978326
 177500     .1775  -351445.28 287632.821 739.766148 286893.055  -639078.1 352185.048 24.6588716
 178000      .178  -349853.03 248514.027 759.935799 247754.091 -598367.06 350612.965 25.3311933
 178500     .1785  -341208.33 204563.713 766.613093   203797.1 -545772.04 341974.939 25.5537698
 179000      .179  -325790.97 156503.187 780.190903 155722.996 -482294.16 326571.162 26.0063634
 179500     .1795  -304840.89 105820.122 803.345418 105016.777 -410661.01 305644.234 26.7781806
 180000       .18  -279262.64  53777.503 825.545636 52951.9574 -333040.14 280088.186 27.5181879
 180500     .1805  -249602.86 1366.24364 838.506998 527.736646 -250969.11 250441.371 27.9502333
 181000      .181  -216247.29 -50515.811 832.731859 -51348.543 -165731.48 217080.019 27.7577286
 181500     .1815  -178977.41  -101537.7 803.523214 -102341.22 -77439.711 179780.933 26.7841071
 182000      .182  -137716.26 -151447.08 764.789813 -152211.87 13730.8237 138481.046 25.4929938
 182500     .1825  -93527.406 -199246.42 734.236684 -199980.66 105719.017 94261.6427 24.4745561
 183000      .183  -48080.866 -243485.02 711.165577 -244196.19 195404.155 48792.0319 23.7055192
 183500     .1835  -2526.2138 -283136.32 686.025896 -283822.34 280610.103 3212.23971 22.8675299
 184000      .184  42308.9216 -317454.46 652.094614 -318106.56 359763.383 -41656.827 21.7364871
 184500     .1845  85903.1087 -345952.29 601.443806 -346553.73 431855.396 -85301.665 20.0481269
 185000      .185  128323.257 -368741.54 533.720863 -369275.26 497064.801 -127789.54 17.7906954
 185500     .1855  169338.659 -385896.99  465.11537  -386362.1 555235.646 -168873.54 15.5038457
 186000      .186  207735.777 -396841.38   409.8092 -397251.19 604577.156 -207325.97 13.6603067
 186500     .1865    242067.3 -400821.57 364.448701 -401186.02 642888.874 -241702.85   12.14829
 187000      .187  271524.772 -397595.21 320.528241 -397915.74 669119.981 -271204.24 10.6842747
 187500     .1875  295626.023 -387177.62 272.178088 -387449.79 682803.639 -295353.85 9.07260295
 188000      .188  314324.869 -369938.04 212.949084 -370150.99 684262.911 -314111.92  7.0983028
 188500     .1885  328088.522 -346760.92 145.998145 -346906.92 674849.445 -327942.52 4.86660483
 189000      .189  336965.826 -318340.48 87.8893198 -318428.37 655306.306 -336877.94 2.92964399
 189500     .1895  340200.006 -284774.07 48.4628435 -284822.54  624974.08 -340151.54 1.61542812
 190000       .19  337097.795 -246154.64 22.0039244 -246176.64 583252.436 -337075.79 .733464148
 190500     .1905  327607.527 -203032.94 .613153145 -203033.55 530640.465 -327606.91 .020438438
 191000      .191  311981.111   -156133.  -21.53448 -156111.47 468114.115 -312002.65   -.717816
 191500     .1915  290946.275 -106520.85 -49.689675 -106471.16 397467.127 -290995.96 -1.6563225
 192000      .192  265570.857 -55580.888 -78.288007   -55502.6 321151.745 -265649.15 -2.6096002
 192500     .1925  236371.655 -4317.3429 -92.145763 -4225.1971 240688.998  -236463.8 -3.0715254
 193000      .193  203196.833  46847.548 -86.090794 46933.6388 156349.285 -203282.92 -2.8696931
 193500     .1935  166125.666 97428.3704 -67.791524 97496.1619 68697.2958 -166193.46 -2.2597175
 194000      .194  125764.591 146627.718 -44.864504 146672.582 -20863.127 -125809.46 -1.4954835
 194500     .1945  82948.7714 193586.483 -23.420864 193609.904 -110637.71 -82972.192 -.78069545
 195000      .195  38923.0218 237185.183 -7.5109083 237192.694 -198262.16 -38930.533 -.25036361
 195500     .1955  -4978.7715 276224.568 10.0300562 276214.538 -281203.34 4988.80151 .334335207
 196000      .196  -48111.474 310052.223 41.9901205 310010.233  -358163.7 48153.4639 1.39967068
 196500     .1965  -90397.236 338566.755  89.356705 338477.398 -428963.99 90486.5922 2.97855683
 197000      .197   -131471.9 361577.408 143.342928 361434.065 -493049.31 131615.247  4.7780976
 197500     .1975  -170616.15 378726.468 196.744616 378529.723 -549342.62 170812.898 6.55815388
 198000      .198  -206973.76 389661.907  243.53114 389418.376 -596635.67 207217.294 8.11770467
 198500     .1985   -239402.2 393846.549 281.311837 393565.237 -633248.75 239683.509 9.37706122
 199000      .199  -266923.04 390850.176 318.521493 390531.655 -657773.22 267241.565 10.6173831
 199500     .1995  -289334.15 380859.124 365.375588 380493.748 -670193.27 289699.524 12.1791863
 200000       0.2  -306883.91 364501.754  419.83224 364081.922 -671385.66 307303.742  13.994408
 200500     .2005   -319523.9 342264.512 473.152322  341791.36 -661788.42 319997.056 15.7717441
 201000      .201  -326992.89  314532.83 519.060293  314013.77 -641525.72 327511.948 17.3020098
 201500     .2015  -328939.72 281671.609 552.428136 281119.181 -610611.33 329492.149 18.4142712
 202000      .202  -324834.66  243876.94 573.174153 243303.766  -568711.6  325407.83 19.1058051
 202500     .2025  -314485.79 201533.591 590.886782 200942.704 -516019.38  315076.68 19.6962261
 203000      .203  -298458.76 155587.094 613.516581 154973.578 -454045.86 299072.278 20.4505527
 203500     .2035  -277592.92 107227.667 637.328076 106590.339 -384820.59 278230.252 21.2442692
 204000      .204  -252402.53 57406.8723 654.670111 56752.2022  -309809.4 253057.202  21.822337
 204500     .2045  -223243.81 6950.07149 660.663998 6289.40749 -230193.88 223904.476 22.0221333
 205000      .205  -190352.27 -43441.996 651.796383 -44093.793 -146910.27 191004.067 21.7265461
 205500     .2055  -153836.19 -93268.958 630.617964 -93899.576 -60567.236 154466.812 21.0205988
 206000      .206  -114202.93 -141844.66 607.516161 -142452.17 27641.7248 114810.446 20.2505387
 206500     .2065  -72585.247 -188061.87 588.432222 -188650.31 115476.626 73173.6793 19.6144074
 207000      .207  -30160.218 -230797.01 568.881177 -231365.89 200636.788 30729.0991 18.9627059
 207500     .2075  12277.1113 -269261.78 542.733524 -269804.52 281538.894 -11734.378 18.0911175
 208000      .208  54114.6996 -302854.63 506.519388 -303361.15 356969.333  -53608.18 16.8839796
 208500     .2085  94942.5885   -331207. 458.504714  -331665.5 426149.587 -94484.084 15.2834905
 209000      .209  134464.306 -354167.64 403.529616 -354571.17 488631.943 -134060.78 13.4509872
 209500     .2095  172001.629 -371415.44 351.946004 -371767.38 543417.067 -171649.68 11.7315335
 210000       .21  206442.691 -382348.64 307.588832 -382656.23 588791.333  -206135.1 10.2529611
 210500     .2105  236851.313 -386520.72  265.54141 -386786.26 623372.033 -236585.77 8.85138033
 211000      .211  262716.879 -383849.91  220.92712 -384070.84  646566.79 -262495.95 7.36423733
 211500     .2115  283754.928  -374461.2 171.198852  -374632.4 658216.124 -283583.73  5.7066284
 212000      .212  299945.102 -358746.73 115.997858 -358862.73  658691.83  -299829.1 3.86659528
  % % % % % %   Suspended simulation;  plot data space exhausted;  SPY SPACE is required.   LIMBUF =  340000.
  % % % % % %   Suspended simulation;  plot data space exhausted;  SPY SPACE is required.   LIMBUF =  340000.
  +++  Time-sharing disabled.   Send  user-keyed interrupt to silence alarm.
   Current values.  INDBUF  INDBEG  LIMBUF  MFLUSH  NUMDCD  KCARD1  KCARD2
                    339994      50  340000    1004      46       1      50
Plot timespan now in memory (in sec) = 1.69967994E-01   2.12461000E-01
   ++++  Begin plot-data copy from memory to disk.   MFLUSH, INDBUF, N4, Tbeg,  Tend = 1005  339994       1  -1.00000E+00
1.00000E+19
 212500     .2125  311347.799 -337257.98 61.5317015 -337319.51 648605.778 -311286.27 2.05105672
 213000      .213  317667.878  -310342.1 16.9849151 -310359.08 628009.976 -317650.89 .566163837
 213500     .2135    318348.9 -278141.67  -16.22898 -278125.44 596490.573 -318365.13 -.54096598
 214000      .214   313146.79 -241013.71 -43.548152 -240970.16 554160.496 -313190.34 -1.4516051
 214500     .2145  302220.628 -199610.35 -69.227216 -199541.12 501830.974 -302289.86 -2.3075739
 215000      .215  285951.967 -154734.76 -95.530559 -154639.23 440686.726  -286047.5  -3.184352
 215500     .2155  264969.066 -107391.27 -122.03384 -107269.24 372360.335  -265091.1 -4.0677948
 216000      .216  239886.243  -58604.44 -142.19882 -58462.242 298490.683 -240028.44 -4.7399607
 216500     .2165  210948.159  -9104.885 -148.94722 -8955.9377 220053.044 -211097.11 -4.9649073
 217000      .217  178241.136 40571.7574 -143.40118 40715.1586 137669.379 -178384.54 -4.7800392
 217500     .2175  142185.532 89713.6678 -131.55011 89845.2179 52471.8645 -142317.08 -4.3850036
 218000      .218   103503.48  137448.07 -117.48308 137565.553  -33944.59 -103620.96 -3.9161025
 218500     .2185  63070.6263 182851.319 -103.49809 182954.817 -119780.69 -63174.124 -3.4499365
 219000      .219  21907.8029 224920.391 -88.694384 225009.086 -203012.59 -21996.497 -2.9564795
 219500     .2195  -19124.348 262794.722  -66.85969 262861.582 -281919.07 19057.4882 -2.2286563
 220000       .22  -59581.378 295995.944 -33.336535  296029.28 -355577.32 59548.0414 -1.1112178
 220500     .2205  -99133.519 324241.656 8.64117715 324233.015 -423375.18 99142.1607 .288039238
 221000      .221  -137176.84 347137.141 52.9006585 347084.241 -484313.98 137229.742 1.76335528
 221500     .2215  -172942.39 364246.265 95.5717248 364150.694 -537188.66 173037.963 3.18572416
 222000      .222  -205602.59 375155.586 134.558827 375021.027 -580758.18 205737.153 4.48529424
 222500     .2225  -234316.75 379470.398 171.405553 379298.993 -613787.15 234488.158 5.71351845
 223000      .223  -258542.37  377044.64 211.891908 376832.748 -635587.01 258754.263  7.0630636
 223500     .2235  -278177.34 368129.505 258.619259 367870.886 -646306.84 278435.958 8.62064197
 224000      .224  -293195.94 353119.389 307.166272 352812.223 -646315.32 293503.102 10.2388757
 224500     .2245  -303366.89 332312.963   351.8881 331961.075 -635679.85 303718.775 11.7296033
 225000      .225  -308395.46 306005.741 389.602026 305616.139  -614401.2 308785.066 12.9867342
 225500     .2255   -307986.7 274510.274 419.012372 274091.262 -582496.97 308405.708 13.9670791
 226000      .226  -301924.68  238178.73 442.719643  237736.01 -540103.41 302367.403 14.7573214
 226500     .2265  -290356.57 197618.012 466.272148  197151.74 -487974.58 290822.842 15.5424049
 227000      .227  -273818.04 153745.473 490.903385  153254.57 -427563.51  274308.94 16.3634462
 227500     .2275  -252839.76 107497.485 512.023363 106985.461 -360337.25 253351.788 17.0674454
 228000      .228  -227766.16  59664.192 525.180562 59139.0114 -287430.35 228291.342 17.5060187
 228500     .2285  -198899.39 10984.0986 528.344117 10455.7545 -209883.49 199427.738 17.6114706
 229000      .229  -166529.79 -37863.206 521.514236  -38384.72 -128666.59 167051.308 17.3838079
 229500     .2295  -131044.72 -86203.441 508.558623    -86712. -44841.283 131553.283 16.9519541
 230000       .23  -93165.309 -133177.09 494.861708 -133671.95 40011.7758 93660.1711 16.4953903
 230500     .2305  -53867.612 -177763.45 480.803631 -178244.26 123895.841 54348.4155 16.0267877
 231000      .231  -13997.737 -219072.15 462.259423 -219534.41 205074.417 14459.9962 15.4086474
 231500     .2315  25817.4984 -256432.04 436.180201 -256868.22 282249.536 -25381.318   14.53934
 232000      .232  65039.0385   -289301. 401.742921 -289702.74 354340.037 -64637.296 13.3914307
 232500     .2325  103198.003 -317277.24  360.25583 -317637.49  420475.24 -102837.75 12.0085277
 233000      .233  139759.866 -340010.67 316.544791 -340327.21 479770.532 -139443.32  10.551493
 233500     .2335  173941.505 -357039.06 275.493146 -357314.56 530980.569 -173666.01 9.18310486
 234000      .234   204869.35 -367871.07 236.696114 -368107.76 572740.415 -204632.65 7.88987047
 234500     .2345  231918.493 -372243.78 196.538824 -372440.32 604162.277 -231721.95 6.55129413
 235000      .235  254720.404 -370139.27 153.023398 -370292.29 624859.674 -254567.38 5.10077993
 235500     .2355  273046.182 -361699.64 106.108641 -361805.75 634745.825 -272940.07  3.5369547
 236000      .236  286780.335 -347223.11 57.9216392 -347281.03 634003.445 -286722.41 1.93072131
 236500     .2365  295762.059 -327043.35 13.4883663 -327056.84 622805.408 -295748.57 .449612209
 237000      .237  299655.934 -301395.48 -23.442324 -301372.04 601051.415 -299679.38 -.78141081
 237500     .2375  298160.005 -270538.75  -54.30838 -270484.44 568698.753 -298214.31 -1.8102793
 238000      .238  291272.598  -234960.1 -82.551868 -234877.55 526232.698 -291355.15 -2.7517289
 238500     .2385   279233.72 -195332.88 -109.74691 -195223.14 474566.602 -279343.47 -3.6582302
 239000      .239  262421.656 -152440.44 -135.75697 -152304.69   414862.1 -262557.41 -4.5252324
 239500     .2395   241304.81 -107150.05 -158.28181 -106991.77 348454.858 -241463.09 -5.2760602
 240000       .24  216270.353 -60273.637 -172.89837 -60100.739 276543.991 -216443.25  -5.763279
 240500     .2405  187549.296 -12472.529 -177.52196 -12295.007 200021.825 -187726.82 -5.9173985
 241000      .241  155449.268 35592.6361 -174.79041 35767.4265 119856.632 -155624.06 -5.8263471
 241500     .2415  120539.863  83115.486 -168.25185 83283.7379 37424.3765 -120708.11 -5.6083948
 242000      .242  83550.1901 129218.664 -159.49944 129378.164 -45668.474  -83709.69 -5.3166481
 242500     .2425  45279.9929 173014.641  -148.5655 173163.207 -127734.65 -45428.558 -4.9521835
 243000      .243  6529.13238 213648.501 -133.34613 213781.847 -207119.37 -6662.4785 -4.4448711
 243500     .2435  -32068.813 250435.185 -110.43476  250545.62   -282504.  31958.378 -3.6811586
 244000      .244  -70062.986 282904.345 -79.461739 282983.807 -352967.33 69983.5244 -2.6487246
 244500     .2445  -106945.25  310630.68 -44.016166 310674.696 -417575.93 106901.231 -1.4672055
 245000      .245  -142039.05  333136.07  -7.641848 333143.712 -475175.12 142031.412 -.25472827
 245500     .2455  -174619.12  349971.76 28.0804014 349943.679 -524590.88 174647.205 .936013381
 246000      .246  -203981.92 360757.241 63.0881138 360694.153 -564739.16 204045.009 2.10293713
 246500     .2465  -229529.02 365229.584 99.3843008   365130.2  -594758.6 229628.402 3.31281003
 247000      .247  -250908.41 363359.517 139.480055 363220.037 -614267.92 251047.886 4.64933517
 247500     .2475  -267969.05 355339.287 182.513706 355156.774 -623308.34 268151.567  6.0837902
 248000      .248  -280526.01  341402.38 224.608182 341177.772 -621928.39 280750.621 7.48693938
 248500     .2485  -288307.72 321763.603 262.699188 321500.904 -610071.33 288570.423 8.75663962
 249000      .249  -291069.76 296690.873 295.636893 296395.236 -587760.63 291365.392 9.85456309
 249500     .2495  -288645.06 266523.123 323.800945 266199.322 -555168.18 288968.857 10.7933648
 250000       .25  -281028.91 231720.136 349.466867 231370.669 -512749.05 281378.379 11.6488956
 250500     .2505   -268480.3 192947.778 374.669927 192573.108 -461428.08 268854.967 12.4889976
 251000      .251  -251418.66 151014.207 398.028551 150616.179 -402432.87 251816.688 13.2676184
 251500     .2515  -230206.66  106694.22  416.11792 106278.103 -336900.89 230622.783 13.8705973
 252000      .252  -205141.02 60701.8774 426.851065 60275.0264 -265842.89 205567.867 14.2283688
 252500     .2525  -176547.98 13747.5024 429.934494 13317.5679 -190295.48  176977.91 14.3311498
 253000      .253  -144818.15 -33455.091 426.589568 -33881.681 -111363.06 145244.741 14.2196523
 253500     .2535   -110487.2 -80136.546 419.613355 -80556.159 -30350.655 110906.814 13.9871118
 254000      .254  -74293.012 -125415.97 410.865456 -125826.83  51122.954 74703.8778 13.6955152
 254500     .2545  -37029.857 -168399.42 398.945217 -168798.36  131369.56 37428.8025 13.2981739
  % % % % % %   Suspended simulation;  plot data space exhausted;  SPY SPACE is required.   LIMBUF =  340000.
  % % % % % %   Suspended simulation;  plot data space exhausted;  SPY SPACE is required.   LIMBUF =  340000.
  +++  Time-sharing disabled.   Send  user-keyed interrupt to silence alarm.
   Current values.  INDBUF  INDBEG  LIMBUF  MFLUSH  NUMDCD  KCARD1  KCARD2
                    339994      50  340000    1005      46       1      50
Plot timespan now in memory (in sec) = 2.12459996E-01   2.54953000E-01
   ++++  Begin plot-data copy from memory to disk.   MFLUSH, INDBUF, N4, Tbeg,  Tend = 1006  339994       1  -1.00000E+00
1.00000E+19
 255000      .255   636.09419 -208331.38 381.281938 -208712.66 208967.472 -254.81225 12.7093979
 255500     .2555  38141.3307 -244589.73 356.906046 -244946.63 282731.059 -37784.425 11.8968682
 256000      .256  74947.5129  -276637.5 326.441482 -276963.94 351585.008 -74621.071 10.8813827
 256500     .2565  110511.031  -304011.5 291.933169 -304303.43 414522.532  -110219.1 9.73110563
 257000      .257  144205.858 -326262.49 256.528483 -326519.02 470468.349 -143949.33 8.55094942
 257500     .2575  175304.967 -342920.96 221.818911 -343142.78 518225.931 -175083.15 7.39396369
 258000      .258  203145.941 -353609.24 186.430635 -353795.67 556755.185 -202959.51  6.2143545
 258500     .2585  227268.005 -358152.39 148.532484 -358300.92 585420.395 -227119.47 4.95108279
 259000      .259  247356.569 -356541.63 107.937342 -356649.57   603898.2 -247248.63 3.59791141
 259500     .2595    263176.3 -348887.02 65.8058405 -348952.82 612063.318 -263110.49 2.19352802
 260000       .26  274533.328 -335391.36 24.5476529 -335415.91 609924.691 -274508.78 .818255095
 260500     .2605  281199.211 -316280.78 -12.889894 -316267.89 597479.988  -281212.1 -.42966313
 261000      .261  282921.938 -291787.31 -45.593721 -291741.72 574709.252 -282967.53 -1.5197907
 261500     .2615  279588.944 -262258.77 -75.202414 -262183.57 541847.714 -279664.15 -2.5067471
 262000      .262  271308.885 -228223.63 -103.25175 -228120.38 499532.517 -271412.14  -3.441725
 262500     .2625  258332.199  -190330.6 -129.72096 -190200.88 448662.798 -258461.92 -4.3240319
 263000      .263  240988.205 -149300.37  -153.4696  -149146.9 390288.574 -241141.67 -5.1156532
 263500     .2635  219634.777 -105884.71 -172.31542 -105712.39 325519.483 -219807.09 -5.7438472
 264000      .264  194585.542 -60794.364 -184.09704 -60610.267 255379.906 -194769.64 -6.1365681
 264500     .2645  166144.698 -14700.532 -188.95771 -14511.574  180845.23 -166333.66 -6.2985903
 265000      .265  134753.207 31663.4339 -189.06271 31852.4966 103089.773 -134942.27 -6.3020902
 265500     .2655  101018.963 77475.5363 -186.02598 77661.5622 23543.4271 -101204.99 -6.2008661
 266000      .266  65624.7336 121894.491 -180.02903  122074.52 -56269.758 -65804.763 -6.0009678
 266500     .2665  29269.1303 164103.106 -170.29024 164273.396 -134833.98 -29439.421 -5.6763413
 267000      .267  -7391.8542 203354.726 -155.18572 203509.912 -210746.58 7236.66852 -5.1728573
 267500     .2675  -43805.569 239034.293 -133.58166 239167.875 -282839.86 43671.9878 -4.4527221
 268000      .268  -79464.538 270631.656 -106.68023 270738.336 -350096.19  79357.858 -3.5560075
 268500     .2685  -113781.25 297646.422 -77.085551 297723.507 -411427.67 113704.166 -2.5695184
 269000      .269  -146096.01  319585.17 -46.487213 319631.657 -465681.18 146049.519 -1.5495738
 269500     .2695  -175766.43  336023.29 -15.250981 336038.541 -511789.72 175751.182 -.50836602
 270000       .27  -202217.42 346635.745 17.1420307 346618.603 -548853.17 202234.563 .571401023
 270500     .2705  -224997.18 351237.541 51.8683858 351185.672 -576234.72 225049.048 1.72894619
 271000      .271  -243814.25 349821.178 89.2652498 349731.912 -593635.42 243903.511 2.97550833
 271500     .2715  -258454.93 342501.258 127.510052 342373.748 -600956.19  258582.44 4.25033507
 272000      .272  -268677.68   329424.6 164.021358 329260.578 -598102.28 268841.701 5.46737858
 272500     .2725  -274242.34 310778.358 197.398657 310580.959 -585020.69 274439.735 6.57995524
 273000      .273  -274984.45 286834.841 227.467516 286607.374 -561819.29 275211.916 7.58225055
 273500     .2735  -270851.28 257967.313 254.892321  257712.42 -528818.59 271106.171 8.49641071
 274000      .274  -261946.09 224678.971 280.794649 224398.177 -486625.06 262226.888 9.35982164
 274500     .2745   -248534.2 187612.879 305.206159 187307.673 -436147.08 248839.409 10.1735386
 275000      .275  -230939.58 147473.501 326.302084 147147.199 -378413.08 231265.886 10.8767361
 275500     .2755  -209458.53 104946.771 342.074107 104604.697  -314405.3 209800.603 11.4024702
 276000      .276   -184398.6 60714.6894  351.83075 60362.8586 -245113.29 184750.427 11.7276917
 276500     .2765  -156133.46 15484.7422 355.983336 15128.7589  -171618.2 156489.442 11.8661112
 277000      .277  -125126.08 -30002.987 355.703954 -30358.691 -95123.088 125481.779 11.8567985
 277500     .2775  -91958.776 -74954.908 352.367891 -75307.276 -17003.868 92311.1435 11.7455964
 278000      .278  -57310.227 -118535.17 346.071444 -118881.24 61224.9436 57656.2981 11.5357148
 278500     .2785  -21842.463 -159952.69 335.398823 -160288.09 138110.224 22177.8621 11.1799608
 279000      .279  13861.9074 -198520.99 319.186827 -198840.18 212382.899 -13542.721 10.6395609
 279500     .2795   49254.583 -233634.05  297.57745 -233931.63 282888.635 -48957.006 9.91924832
 280000       .28  83781.0905  -264742.7 271.641855 -265014.35 348523.794 -83509.449 9.05472849
 280500     .2805   116863.02 -291345.06 243.063056 -291588.12 408208.082 -116619.96 8.10210186
 281000      .281  147877.623 -312965.69 213.414726 -313179.11 460843.316 -147664.21 7.11382419
 281500     .2815  176200.157 -329176.79 182.850637 -329359.64 505376.951 -176017.31 6.09502124
 282000      .282  201310.523 -339677.29 150.348367 -339827.64 540987.816 -201160.17 5.01161223
 282500     .2825  222826.069 -344323.53 115.418017 -344438.95 567149.601 -222710.65 3.84726724
 283000      .283  240448.659 -343091.59 78.7435252 -343170.33 583540.246 -240369.92 2.62478417
 283500     .2835  253929.234 -336050.25 41.7292262 -336091.98 589979.485  -253887.5 1.39097421
 284000      .284  263046.683 -323340.92   6.184015  -323347.1 586387.602  -263040.5 .206133833
 284500     .2845  267591.021 -305152.07 -26.520805 -305125.55 572743.091 -267617.54 -.88402684
 285000      .285  267413.737 -281742.49 -56.501982 -281685.98 549156.224 -267470.24 -1.8833994
 285500     .2855  262514.578 -253502.46 -84.726492 -253417.73  516017.04  -262599.3 -2.8242164
 286000      .286  253041.714 -220954.39 -111.46725 -220842.92 473996.102 -253153.18 -3.7155751
 286500     .2865  239230.613  -184703.7 -136.00728 -184567.69 423934.309 -239366.62 -4.5335761
 287000      .287  221367.436 -145406.58 -157.10515 -145249.48  366774.02 -221524.54 -5.2368383
 287500     .2875  199760.935 -103740.23  -173.3301  -103566.9 303501.163 -199934.27   -5.77767
 288000      .288   174727.75 -60376.172 -183.96361 -60192.209 235103.922 -174911.71 -6.1321205
 288500     .2885  146644.375  -16005.71 -189.73013 -15815.979 162650.085 -146834.11 -6.3243376
 289000      .289   116009.01 28616.3638 -191.86652 28808.2303 87392.6465 -116200.88 -6.3955507
 289500     .2895  83414.5614 72692.0761  -190.8138 72882.8899 10722.4853 -83605.375 -6.3604599
 290000       .29  49484.5642 115431.134 -186.18935 115617.323  -65946.57 -49670.754 -6.2063117
 290500     .2905   14836.516 156082.009 -177.22408 156259.233 -141245.49  -15013.74 -5.9074693
 291000      .291  -19948.844 193962.268 -163.13381 194125.402 -213911.11 19785.7107 -5.4377936
 291500     .2915  -54334.975 228476.201 -144.01401 228620.215 -282811.18 54190.9612 -4.8004671
 292000      .292  -87775.566 259081.375 -121.22744 259202.602 -346856.94 87654.3381 -4.0409147
 292500     .2925  -119673.76 285254.853 -96.293633 285351.146 -404928.61 119577.464 -3.2097878
 293000      .293  -149423.88 306520.295 -69.857299 306590.152 -455944.17  149354.02 -2.3285766
 293500     .2935  -176468.83 322488.739 -41.854406 322530.594 -498957.57 176426.979 -1.3951469
 294000      .294  -200330.29 332879.626 -11.906661 332891.533 -533209.92 200318.386  -.3968887
 294500     .2945  -220632.92 337541.138 20.2587984 337520.879 -558174.06 220653.178 .675293282
 295000      .295  -237096.62  336449.51  53.981432 336395.528 -573546.13 237150.606 1.79938107
 295500     .2955  -249477.39 329663.002 87.6095784 329575.392 -579140.39 249564.999 2.92031928
 296000      .296  -257539.88 317291.452 119.677234 317171.775 -574831.33 257659.557 3.98924112
 296500     .2965  -261100.75 299519.444 149.643971   299369.8  -560620.2 261250.396 4.98813238
 297000      .297  -260071.03 276630.637 177.598832 276453.038 -536701.67 260248.629 5.91996108
  % % % % % %   Suspended simulation;  plot data space exhausted;  SPY SPACE is required.   LIMBUF =  340000.
  % % % % % %   Suspended simulation;  plot data space exhausted;  SPY SPACE is required.   LIMBUF =  340000.
  +++  Time-sharing disabled.   Send  user-keyed interrupt to silence alarm.
   Current values.  INDBUF  INDBEG  LIMBUF  MFLUSH  NUMDCD  KCARD1  KCARD2
                    339994      50  340000    1006      46       1      50
Plot timespan now in memory (in sec) = 2.54952013E-01   2.97445000E-01
   ++++  Begin plot-data copy from memory to disk.   MFLUSH, INDBUF, N4, Tbeg,  Tend = 1007  339994       1  -1.00000E+00
1.00000E+19
 297500     .2975  -254473.99  249015.05 203.902662 248811.147 -503489.04 254677.892 6.79675541
 298000      .298  -244455.75 217175.131  228.71659 216946.414 -461630.88 244684.468 7.62388635
 298500     .2985  -230258.25 181705.298 251.289746 181454.008 -411963.54 230509.536 8.37632486
 299000      .299   -212154.9 143236.373 270.189308 142966.184 -355391.27  212425.09 9.00631027
 299500     .2995  -190431.91 102408.708 284.441593 102124.266 -292840.62 190716.349 9.48138642
 300000       0.3  -165425.88 59889.7898 293.988952 59595.8009 -225315.67 165719.866 9.79963172
 300500     .3005  -137549.68 16385.2836 299.316122 16085.9675 -153934.97    137849. 9.97720407
 301000      .301  -107298.34 -27362.484 301.114383 -27663.598 -79935.854 107599.452 10.0371461
 301500     .3015  -75245.774 -70578.108 299.767484 -70877.876 -4667.6661 75545.5418 9.99224947
 302000      .302  -42002.368 -112485.48 294.793042 -112780.27 70483.1099 42297.1612 9.82643472
 302500     .3025  -8151.9655 -152362.17 285.301432 -152647.47 144210.202 8437.26698 9.51004772
 303000      .303  25756.7942 -189555.84 271.022366 -189826.87 215312.638 -25485.772 9.03407887
 303500     .3035  59177.5435 -223466.16 252.509356 -223718.67 282643.701 -58925.034 8.41697854
 304000      .304  91550.7886 -253537.11 230.732083 -253767.84 345087.899 -91320.056 7.69106943
 304500     .3045  122303.367 -279257.31 206.748857 -279464.06 401560.674 -122096.62 6.89162855
 305000      .305  150859.111 -300163.95  181.17392 -300345.13 451023.064 -150677.94 6.03913065
 305500     .3055  176686.687 -315875.32 153.800356 -316029.13 492562.012 -176532.89 5.12667854
 306000      .306  199350.794 -326131.76 124.223335 -326255.99 525482.558 -199226.57 4.14077783
 306500     .3065  218505.899 -330794.29 92.7023438 -330886.99 549300.188  -218413.2 3.09007813
 307000      .307  233862.588 -329819.14  60.160977  -329879.3 563681.731 -233802.43  2.0053659
 307500     .3075   245173.63 -323244.63 27.7810092 -323272.41 568418.256 -245145.85 .926033641
 308000      .308  252230.688 -311182.54 -3.3231322 -311179.22 563413.233 -252234.01 -.11077107
 308500     .3085  254874.929 -293816.43 -32.620624 -293783.81 548691.355 -254907.55 -1.0873541
 309000      .309  253040.045 -271426.35 -60.343944 -271366.01 524466.396 -253100.39 -2.0114648
 309500     .3095  246783.645 -244410.55 -86.764716 -244323.79 491194.196 -246870.41 -2.8921572
 310000       .31  236263.566 -213265.48 -111.51851 -213153.96 449529.044 -236375.08 -3.7172837
 310500     .3105  221700.096 -178552.41 -133.75376 -178418.66 400252.508 -221833.85 -4.4584586
 311000      .311  203358.241 -140877.33  -152.5101 -140724.82 344235.568 -203510.75   -5.08367
 311500     .3115  181538.414 -100874.29 -167.04141 -100707.25 282412.703 -181705.46 -5.5680469
 312000      .312  156584.251 -59199.799 -177.27776 -59022.521  215784.05 -156761.53 -5.9092585
 312500     .3125  128916.568 -16550.771 -183.80777 -16366.963 145467.339 -129100.38 -6.1269258
 313000      .313   99044.381 26329.5667 -187.11402 26516.6807 72714.8143 -99231.495 -6.2371339
 313500     .3135  67528.0141 68682.1969 -187.08772 68869.2846 -1154.1828 -67715.102 -6.2362574
 314000      .314  34939.9383 109766.435 -183.27301 109949.708 -74826.496 -35123.211 -6.1091003
 314500     .3145  1845.18379 148880.352  -175.2046 149055.557 -147035.17 -2020.3884 -5.8401533
 315000      .315  -31210.044 185376.988 -162.72499 185539.713 -216587.03 31047.3187 -5.4241664
 315500     .3155  -63689.463 218665.494  -146.3608 218811.855 -282354.96 63543.1025 -4.8786934
 316000      .316  -95039.007 248192.905 -127.12662 248320.032 -343231.91   94911.88 -4.2375538
 316500     .3165  -124689.25 273444.127 -105.77693 273549.904 -398133.37  124583.47 -3.5258978
 317000      .317  -152095.61 293970.952 -82.502035 294053.454 -446066.56 152013.109 -2.7500678
 317500     .3175  -176771.39 309416.876 -57.224878 309474.101 -486188.27 176714.167 -1.9074959
 318000      .318  -198302.34 319528.747 -29.898417 319558.645 -517831.09 198272.442 -.99661389
 318500     .3185  -216352.08 324162.992 -.81371542 324163.806 -540515.07 216351.269 -.02712385
 319000      .319  -230645.46 323274.217 29.1284793 323245.089 -553919.67 230674.585 .970949311
 319500     .3195  -240941.31 316890.441 58.7563333 316831.684 -557831.75 241000.065 1.95854444
 320000       .32  -247039.21  305110.73 87.3073917 305023.423 -552149.94 247126.512 2.91024639
 320500     .3205  -248813.06 288124.261 114.567282 288009.694 -536937.32 248927.625  3.8189094
 321000      .321  -246231.29  266220.46 140.549635  266079.91 -512451.75 246371.835 4.68498783
 321500     .3215  -239360.68 239787.926  165.22977 239622.697 -479148.61 239525.913 5.50765899
 322000      .322  -228360.13 209307.232 188.249231 209118.983 -437667.36 228548.377 6.27497435
 322500     .3225  -213452.81 175326.064 208.755872 175117.309 -388778.87 213661.565 6.95852907
 323000      .323  -194897.02 138428.642  225.83881 138202.803 -333325.66  195122.86 7.52796034
 323500     .3235  -172992.08 99230.2435 239.101327 98991.1422 -272222.32 173231.182 7.97004424
 324000      .324  -148101.33 58386.6144 248.656117 58137.9583 -206487.94 148349.984 8.28853722
 324500     .3245  -120658.84 16592.8204 254.801608 16338.0188 -137251.66 120913.646 8.49338693
 325000      .325  -91162.983 -25426.074 257.775515 -25683.849 -65736.909 91420.7588 8.59251717
 325500     .3255    -60159.4 -66930.452 257.479098 -67187.931 6771.05197 60416.8791 8.58263659
 326000      .326  -28205.852 -107196.88 253.427589  -107450.3 78991.0254 28459.2794 8.44758629
 326500     .3265    4155.268 -145546.39 245.234808 -145791.63 149701.662 -3910.0332 8.17449361
 327000      .327  36390.1233 -181346.69  233.05507 -181579.74 217736.809 -36157.068 7.76850234
 327500     .3275  67957.6516 -214004.77 217.464028 -214222.24 281962.424 -67740.188 7.24880093
 328000      .328  98310.0997 -242969.88  199.14618 -243169.02 341279.976 -98110.954 6.63820602
 328500     .3285  126903.384 -267741.43  178.66222  -267920.1 394644.817 -126724.72 5.95540734
 329000      .329  153217.675 -287883.13 156.205835 -288039.33 441100.801 -153061.47 5.20686115
 329500     .3295  176791.183 -303048.59 131.659017 -303180.25  479839.77 -176659.52  4.3886339
 330000       .33  197238.236 -312997.63 105.086547 -313102.72 510235.866 -197133.15 3.50288489
[...]
                                   6  6.9931070E-01    7  6.9985771E-01

                   623900.735 -641617.71 -681751.62 .1070365E7 -897205.78  -.10863E7 2393.95193
Times of maxima :     .017926    .713919    .003255    .004511    .006277    .002566    .014448
             Random switching times for simulation number  298  :
                                   1  5.4402657E-02    2  5.4726493E-02    3  5.5809066E-02    4  1.1302849E-02    5  6.9999931E-01
                                   6  6.9999918E-01    7  7.0135056E-01

                   614840.726 -652405.63 -681751.62 .1070365E7 -897205.78  -.10863E7 2358.88404
Times of maxima :     .018245    .713919    .003255    .004511    .006277    .002566    .713836
             Random switching times for simulation number  299  :
                                   1  5.4359107E-02    2  5.5309833E-02    3  5.5354775E-02    4  9.7516764E-03    5  7.0067447E-01
                                   6  7.0174165E-01    7  7.0054964E-01

                      625165. -651149.35 -681751.62 .1070365E7 -897205.78  -.10863E7  2318.9706
Times of maxima :     .017965    .713683    .003255    .004511    .006277    .002566    .713922
             Random switching times for simulation number  300  :
                                   1  5.6212631E-02    2  5.5400460E-02    3  5.4330646E-02    4  9.8967378E-03    5  7.0009595E-01
                                   6  7.0031249E-01    7  6.9985806E-01

                   625416.517   -648388. -681751.62 .1070365E7 -897205.78  -.10863E7 2349.31098
Times of maxima :     .017979    .713947    .003255    .004511    .006277    .002566    .713842

 MAIN20 dumps OVER12 dice seed  SEEDSV =   3.0444871000000000E+09

Statistical output of  node  voltage   0.4287E+06 |              X0003AX0003BX0003C

1 ) -------------------------------------------------------------------------------------------------------------------------------
Statistical distribution of peak voltage at node  "X0003A".   The base voltage for per unit printout is  V-base = 4.28660705E+05
  Interval             voltage         voltage  in     Frequency    Cumulative               Per cent
    number         in per unit      physical units     (density)     frequency     .GE. current value
        27           1.3500000      5.78691952E+05             0             0          100.000000
        28           1.4000000      6.00124987E+05             1             1           99.666667
        29           1.4500000      6.21558022E+05            96            97           67.666667
        30           1.5000000      6.42991058E+05           195           292            2.666667
        31           1.5500000      6.64424093E+05             0           292            2.666667
        32           1.6000000      6.85857128E+05             1           293            2.333333
        33           1.6500000      7.07290163E+05             2           295            1.666667
        34           1.7000000      7.28723199E+05             2           297            1.000000
        35           1.7500000      7.50156234E+05             2           299             .333333
        36           1.8000000      7.71589269E+05             0           299             .333333
        37           1.8500000      7.93022304E+05             1           300             .000000
Summary of preceding table follows:       Grouped data     Ungrouped data
                                 Mean = 1.46416667E+00     1.45915424E+00
                             Variance = 1.99763099E-03     1.56680888E-03
                   Standard deviation = 4.46948654E-02     3.95829367E-02

2 ) -------------------------------------------------------------------------------------------------------------------------------
Statistical distribution of peak voltage at node  "X0003B".   The base voltage for per unit printout is  V-base = 4.28660705E+05
  Interval             voltage         voltage  in     Frequency    Cumulative               Per cent
    number         in per unit      physical units     (density)     frequency     .GE. current value
        28           1.4000000      6.00124987E+05             0             0          100.000000
        29           1.4500000      6.21558022E+05             5             5           98.333333
        30           1.5000000      6.42991058E+05            80            85           71.666667
        31           1.5500000      6.64424093E+05           122           207           31.000000
        32           1.6000000      6.85857128E+05            70           277            7.666667
        33           1.6500000      7.07290163E+05            17           294            2.000000
        34           1.7000000      7.28723199E+05             1           295            1.666667
        35           1.7500000      7.50156234E+05             0           295            1.666667
        36           1.8000000      7.71589269E+05             0           295            1.666667
        37           1.8500000      7.93022304E+05             0           295            1.666667
        38           1.9000000      8.14455340E+05             4           299             .333333
        39           1.9500000      8.35888375E+05             0           299             .333333
        40           2.0000000      8.57321410E+05             1           300             .000000
Summary of preceding table follows:       Grouped data     Ungrouped data
                                 Mean = 1.53400000E+00     1.53346497E+00
                             Variance = 4.30000000E-03     4.27004636E-03
                   Standard deviation = 6.55743852E-02     6.53455917E-02

3 ) -------------------------------------------------------------------------------------------------------------------------------
  SUMMARY   SUMMARY   SUMMARY   SUMMARY   SUMMARY   SUMMARY   SUMMARY   SUMMARY   SUMMARY   SUMMARY   SUMMARY   SUMMARY   SUMMARY
3 ) -------------------------------------------------------------------------------------------------------------------------------
The following is a distribution of peak overvoltages among all output nodes of the last data card that have the same base voltage.
This distribution is for the maximum of the peaks at all output nodes with  V-base = 4.28660705E+05
  Interval             voltage         voltage  in     Frequency    Cumulative               Per cent
    number         in per unit      physical units     (density)     frequency     .GE. current value
        31           1.5500000      6.64424093E+05             0             0          100.000000
        32           1.6000000      6.85857128E+05           271           271            9.666667
        33           1.6500000      7.07290163E+05            19           290            3.333333
        34           1.7000000      7.28723199E+05             2           292            2.666667
        35           1.7500000      7.50156234E+05             2           294            2.000000
        36           1.8000000      7.71589269E+05             0           294            2.000000
        37           1.8500000      7.93022304E+05             1           295            1.666667
        38           1.9000000      8.14455340E+05             4           299             .333333
        39           1.9500000      8.35888375E+05             0           299             .333333
        40           2.0000000      8.57321410E+05             1           300             .000000
Summary of preceding table follows:       Grouped data     Ungrouped data
                                 Mean = 1.58600000E+00     1.59964919E+00
                             Variance = 2.20301003E-03     1.93312182E-03
                   Standard deviation = 4.69362337E-02     4.39672813E-02

Statistical output of branch voltage   0.4287E+06 |-1            X0003BX0003CX0003AX0003BX0003CX0003A

4 ) -------------------------------------------------------------------------------------------------------------------------------
Statistical distribution of peak voltage  for branch  "X0003A"  to  "X0003B".   Base voltage  for per unit output = 4.28660705E+05
  Interval             voltage         voltage  in     Frequency    Cumulative               Per cent
    number         in per unit      physical units     (density)     frequency     .GE. current value
        41           2.0500000      8.78754445E+05             0             0          100.000000
        42           2.1000000      9.00187481E+05           286           286            4.666667
        43           2.1500000      9.21620516E+05             0           286            4.666667
        44           2.2000000      9.43053551E+05             0           286            4.666667
        45           2.2500000      9.64486586E+05             0           286            4.666667
        46           2.3000000      9.85919622E+05             3           289            3.666667
        47           2.3500000      1.00735266E+06             1           290            3.333333
        48           2.4000000      1.02878569E+06             0           290            3.333333
        49           2.4500000      1.05021873E+06             0           290            3.333333
        50           2.5000000      1.07165176E+06             4           294            2.000000
        51           2.5500000      1.09308480E+06             5           299             .333333
        52           2.6000000      1.11451783E+06             1           300             .000000
Summary of preceding table follows:       Grouped data     Ungrouped data
                                 Mean = 2.09233333E+00     2.10920437E+00
                             Variance = 6.67179487E-03     5.90581448E-03
                   Standard deviation = 8.16810558E-02     7.68492972E-02

5 ) -------------------------------------------------------------------------------------------------------------------------------
  SUMMARY   SUMMARY   SUMMARY   SUMMARY   SUMMARY   SUMMARY   SUMMARY   SUMMARY   SUMMARY   SUMMARY   SUMMARY   SUMMARY   SUMMARY
5 ) -------------------------------------------------------------------------------------------------------------------------------
A distribution of peak values among all output branches of the last data card that have the same base value follows.  This
statistical distribution is for the maximum of the peaks at all of these output branches having base  voltage  = 4.28660705E+05
  Interval             voltage         voltage  in     Frequency    Cumulative               Per cent
    number         in per unit      physical units     (density)     frequency     .GE. current value
        50           2.5000000      1.07165176E+06             0             0          100.000000
        51           2.5500000      1.09308480E+06           299           299             .333333
        52           2.6000000      1.11451783E+06             1           300             .000000
Summary of preceding table follows:       Grouped data     Ungrouped data
                                 Mean = 2.52516667E+00     2.53433736E+00
                             Variance = 8.33333333E-06     5.61627787E-06
                   Standard deviation = 2.88675135E-03     2.36986875E-03

Blank card ends statistical tabulation requests.  |BLANK STATISTICS

                                      Sample curve symbols : "A", "B", and "C"
                                      Theoretical curve symbol : "*"
                                      Common curve symbol : "X"

        Switch  "X0001B"  to  "X0002B"            Switch  "X0001A"  to  "X0002A"            Switch  "X0001C"  to  "X0002C"
1.32420000E+00   switchings per column          1.32420000E+00   switchings per column     1.32420000E+00   switchings per column
              Columns                                     Columns                                     Columns
          5   10   15   20   25   30                5   10   15   20   25   30                5   10   15   20   25   30
     +----+----+----+----+----+----+           +----+----+----+----+----+----+           +----+----+----+----+----+----+
    X                                         X                                         X
    X                                         X                                         X
    X                                         X                                         X
    *A                                        X                                         X
    |*A                                       B*                                        |*C
    |A*                                       | X                                       | X
    |   X                                     | B *                                     |   *  C
    |       X                                 |       X                                 |     C *
    |      A    *                             |           *B                            |       C   *
    |                 * A                     |                 *    B                  |                 *  C
    |                       *     A           |                       X                 |                       *    C
    |                      A    *             |                           *   B         |                    C      *
    |  5.5000E-02                 *     A     |  5.5000E-02              B  *           |  5.5000E-02                 *     C
    |                           *      A      |                         B *             |                         C *
    |                  A    *                 |                       * B               |                       *     C
    |               A *                       |                B*                       |            C    *
    |         A *                             |          B*                             |        C  *
    |       * A                               |       X                                 |       *  C
    |  A*                                     |   X                                     | C *
    | *A                                      | X                                       | X
    |X                                        |X                                        |*C
    X                                         *B                                        X
    X                                         X                                         X
    X                                         X                                         *C
    X                                         X                                         X
   Time (scale = 3.33333333E-04  Sec/line)   Time (scale = 3.33333333E-04  Sec/line)   Time  (scale = 3.33333333E-04  Sec/line)

        Switch  "X0003C"  to  "XX0009"            Switch  "X0001B"  to  "X0002B"            Switch  "X0001A"  to  "X0002A"
1.32420000E+00   switchings per column          1.32420000E+00   switchings per column     1.32420000E+00   switchings per column
              Columns                                     Columns                                     Columns
          5   10   15   20   25   30                5   10   15   20   25   30                5   10   15   20   25   30
     +----+----+----+----+----+----+           +----+----+----+----+----+----+           +----+----+----+----+----+----+
    X                                         X                                         X
    X                                         X                                         X
    X                                         X                                         X
    *A                                        X                                         * C
    |X                                        |X                                        |*C
    | *A                                      | X                                       | X
    |  A*                                     |  B*                                     |   X
    |      A*                                 |    B  *                                 |     C *
    |         A *                             |           *  B                          |          C*
    |                 * A                     |                B*                       |                 X
    |                       *     A           |                       *    B            |                       X
    |                           *    A        |                           *B            |                           * C
    |  1.0000E-02                 *A          |  7.0000E-01                 *   B       |  7.0000E-01                C*
    |                           *   A         |                           *  B          |                           *  C
    |                A      *                 |                   B   *                 |                    C  *
    |                 * A                     |            B    *                       |                 X
    |           X                             |         B *                             |           * C
    |     A *                                 |     B *                                 |       X
    A   *                                     |   *  B                                  |   *C
    A *                                       | X                                       C *
    A*                                        |*B                                       |*C
    *A                                        *B                                        X
    X                                         X                                         X
    X                                         *B                                        X
    X                                         X                                         X
   Time (scale = 3.33333333E-04  Sec/line)   Time (scale = 3.33333333E-04  Sec/line)   Time  (scale = 3.33333333E-04  Sec/line)

   Switch  "X0001C"  to  "X0002C"
     1.32420000E+00   switchings per column
              Columns
          5   10   15   20   25   30
     +----+----+----+----+----+----+
    X
    X
    *A
    X
    |X
    |A*
    | A *
    |       X
    |           *    A
    |          A      *
    |                       *    A
    |                         A *
    |  7.0000E-01                A*
    |                          A*
    |                       X
    |                 *  A
    |           *       A
    |    A  *
    |   X
    A *
    A*
    *A
    X
    *A
    X
   Time (scale = 3.33333333E-04  Sec/line)
 .... Questionable Kolmogorov-Smirnov test result = 4.79983461E-01
 .... Questionable Kolmogorov-Smirnov test result = 8.61125218E-01
 .... Questionable Kolmogorov-Smirnov test result = 6.22920778E-01
 .... Questionable Kolmogorov-Smirnov test result = 8.70941508E-02
 .... Questionable Kolmogorov-Smirnov test result = 7.08509700E-01
 .... Questionable Kolmogorov-Smirnov test result = 9.61921384E-01
 .... Questionable Kolmogorov-Smirnov test result = 7.92096056E-01

Actual List Sizes for the preceding solution follow.       11-Nov-18  11.00.00
   Size  1-10:    27    26    38     3   138    13    42  5298     0     0
   Size 11-20:     0     7 -9999 -9999 -9999     0     0     0    23  3252
   Size 21-30:    36   180 14778     0 -9999     9 -9999 -9999 -9999     0
Seconds for overlays  1-5  :     0.000     0.000     0.000  -- (CP: Wait; Real)
Seconds for overlays  6-11 :     0.000     0.000     0.000
Seconds for overlays 12-15 :     0.000     0.000     0.000
Seconds for time-step loop :     0.000     0.000     0.000
Seconds after DELTAT-loop  :     0.000     0.000     0.000
                               ---------------------------
                   Totals  :     0.000     0.000     0.000

