   ---   55   cards of disk file read into card cache cells  1   onward.
 <===> Done with  "/"-card sorting by data class.    Remember that the source file appears different from interpreted input data.
Alternative Transients Program (ATP),  F77 GNU Linux or DOS.  All rights reserved by Can/Am user group of Portland, Oregon, USA.
 Date (dd-mth-yy) and time of day (hh.mm.ss) = 11-Nov-18  11.00.00    Name of disk plot file, if any, is
Consult the 860-page ATP Rule Book of the Can/Am EMTP User Group in Portland,  Oregon, USA.  Source code date is
Total size of LABCOM tables = 16446853 INTEGER words.  31 VARDIM  List Sizes follow:  6002  10K  192K  900  420K  1200  15K
  120K  2250  3800  720  2K  72800  510  800K  800  90  254  800K  100K  3K  15K  192K  120  45K  260K  600  210K  1100  19  200K
--------------------------------------------------+--------------------------------------------------------------------------------
Descriptive interpretation of input data cards.   |  Input data card images are shown below, all 80 columns, character by character
                                                  0         1         2         3         4         5         6         7         8
                                                  012345678901234567890123456789012345678901234567890123456789012345678901234567890
--------------------------------------------------+--------------------------------------------------------------------------------
Comment card.   KOMPAR > 0.                       |C data:Caso0_ReEnergizacao_Convenc_RPI.atp
Marker card preceding new EMTP data case.         |BEGIN NEW DATA CASE
Comment card.   KOMPAR > 0.                       |C $DUMMY, XYZ000
Misc. data.     1.000E-06   1.000E+00   0.000E+00 |   1.E-6      1.
Misc. data.  500  1  0  0  1  0  0  1  300  0     |     500       1       0       0       1       0       0       1     300
Statistics data.      1    1    0    0    1    0  |       1       1       0       0       1      -1                               0
Series R-L-C.   5.000E+00  7.500E-02  0.000E+00   |  X0001AX0007A                5.   75.                                         0
Series R-L-C.   5.000E+00  7.500E-02  0.000E+00   |  X0001BX0007B                5.   75.                                         0
Series R-L-C.   5.000E+00  7.500E-02  0.000E+00   |  X0001CX0007C                5.   75.                                         0
Series R-L-C.   2.000E+02  0.000E+00  0.000E+00   |  X0007AX0001A              200.                                               0
Series R-L-C.   2.000E+02  0.000E+00  0.000E+00   |  X0007BX0001B              200.                                               0
Series R-L-C.   2.000E+02  0.000E+00  0.000E+00   |  X0007CX0001C              200.                                               0
Series R-L-C.   1.516E+00  1.608E+00  0.000E+00   |  X0003BXX0008            1.5155 1608.                                         0
Series R-L-C.   1.516E+00  1.608E+00  0.000E+00   |  X0003AXX0008            1.5155 1608.                                         0
Series R-L-C.   1.516E+00  1.608E+00  0.000E+00   |  X0003CXX0008            1.5155 1608.                                         0
Series R-L-C.   3.272E-01  3.472E-01  0.000E+00   |  XX0008                   .3272 347.2                                         0
Series R-L-C.   3.000E+01  0.000E+00  0.000E+00   |  XX0009                     30.                                               0
Series R-L-C.   1.000E+02  0.000E+00  0.000E+00   |  X0002AX0010A              100.                                               0
Series R-L-C.   1.000E+02  0.000E+00  0.000E+00   |  X0002BX0010B              100.                                               0
Series R-L-C.   1.000E+02  0.000E+00  0.000E+00   |  X0002CX0010C              100.                                               0
Dynamic $INCLUDE uses fixed RAM cache to delay.   |$INSERT, C:\SimulacaoATP\EXT1.pch
J. Marti line, mode  1   parameters begin.        |-1X0010AX0006C                2.  0.00              -2 3
J. Marti line, mode  2   parameters begin.        |-2X0010BX0006A                2.  0.00              -2 3
J. Marti line, mode  3   parameters begin.        |-3X0010CX0006B                2.  0.00              -2 3
TR(1,1 )...  0.667-0.707-0.317                    |  0.66668704 -0.70710678 -0.31743981
TI(1,1 )...  0.000 0.000 0.004                    |  0.00000000  0.00000000  0.00360196
TR(2,1 )...  0.333 0.000 0.894                    |  0.33285412  0.00000000  0.89350256
TI(2,1 )... -0.016 0.000 0.010                    | -0.01627623  0.00000000  0.00954818
TR(3,1 )...  0.667 0.707-0.317                    |  0.66668704  0.70710678 -0.31743981
TI(3,1 )...  0.000 0.000 0.004                    |  0.00000000  0.00000000  0.00360196
Dynamic $INCLUDE uses fixed RAM cache to delay.   |$INSERT, C:\SimulacaoATP\CONV2.pch
J. Marti line, mode  1   parameters begin.        |-1X0004AX0005C                2.  0.00              -2 3
J. Marti line, mode  2   parameters begin.        |-2X0004BX0005A                2.  0.00              -2 3
J. Marti line, mode  3   parameters begin.        |-3X0004CX0005B                2.  0.00              -2 3
TR(1,1 )...  0.667-0.707-0.317                    |  0.66668704 -0.70710678 -0.31743981
TI(1,1 )...  0.000 0.000 0.004                    |  0.00000000  0.00000000  0.00360196
TR(2,1 )...  0.333 0.000 0.894                    |  0.33285412  0.00000000  0.89350256
TI(2,1 )... -0.016 0.000 0.010                    | -0.01627623  0.00000000  0.00954818
TR(3,1 )...  0.667 0.707-0.317                    |  0.66668704  0.70710678 -0.31743981
TI(3,1 )...  0.000 0.000 0.004                    |  0.00000000  0.00000000  0.00360196
Dynamic $INCLUDE uses fixed RAM cache to delay.   |$INSERT, C:\SimulacaoATP\EXT3.pch
J. Marti line, mode  1   parameters begin.        |-1X0005AX0003A                2.  0.00              -2 3
J. Marti line, mode  2   parameters begin.        |-2X0005BX0003B                2.  0.00              -2 3
J. Marti line, mode  3   parameters begin.        |-3X0005CX0003C                2.  0.00              -2 3
TR(1,1 )...  0.667-0.707-0.317                    |  0.66668704 -0.70710678 -0.31743981
TI(1,1 )...  0.000 0.000 0.004                    |  0.00000000  0.00000000  0.00360196
TR(2,1 )...  0.333 0.000 0.894                    |  0.33285412  0.00000000  0.89350256
TI(2,1 )... -0.016 0.000 0.010                    | -0.01627623  0.00000000  0.00954818
TR(3,1 )...  0.667 0.707-0.317                    |  0.66668704  0.70710678 -0.31743981
TI(3,1 )...  0.000 0.000 0.004                    |  0.00000000  0.00000000  0.00360196
Dynamic $INCLUDE uses fixed RAM cache to delay.   |$INSERT, C:\SimulacaoATP\CONV4.pch
J. Marti line, mode  1   parameters begin.        |-1X0006AX0004C                2.  0.00              -2 3
J. Marti line, mode  2   parameters begin.        |-2X0006BX0004A                2.  0.00              -2 3
J. Marti line, mode  3   parameters begin.        |-3X0006CX0004B                2.  0.00              -2 3
TR(1,1 )...  0.667-0.707-0.317                    |  0.66668704 -0.70710678 -0.31743981
TI(1,1 )...  0.000 0.000 0.004                    |  0.00000000  0.00000000  0.00360196
TR(2,1 )...  0.333 0.000 0.894                    |  0.33285412  0.00000000  0.89350256
TI(2,1 )... -0.016 0.000 0.010                    | -0.01627623  0.00000000  0.00954818
TR(3,1 )...  0.667 0.707-0.317                    |  0.66668704  0.70710678 -0.31743981
TI(3,1 )...  0.000 0.000 0.004                    |  0.00000000  0.00000000  0.00360196
Blank card ending branches.  IBR, NTOT = 26  27   |BLANK BRANCH
Switch.   5.50E-02  1.00E-03  0.00E+00  3.33E+03  |  X0001BX0002B      .055      .001               3333.STATISTICS               0
Switch.   5.50E-02  1.00E-03  0.00E+00  3.33E+03  |  X0001AX0002A      .055      .001               3333.STATISTICS               0
Switch.   5.50E-02  1.00E-03  0.00E+00  3.33E+03  |  X0001CX0002C      .055      .001               3333.STATISTICS               0
Switch.   1.00E-02  1.00E-03  0.00E+00  0.00E+00  |  X0003CXX0009       .01      .001                    STATISTICS               1
Switch.   7.00E-01  1.00E-03  0.00E+00  0.00E+00  |  X0001BX0002B        .7      .001                    STATISTICS               0
Switch.   7.00E-01  1.00E-03  0.00E+00  0.00E+00  |  X0001AX0002A        .7      .001                    STATISTICS               0
Switch.   7.00E-01  1.00E-03  0.00E+00  0.00E+00  |  X0001CX0002C        .7      .001                    STATISTICS               0
Switch.   0.00E+00  6.98E-01  0.00E+00  0.00E+00  |  X0002AX0010A                .698                                             0
Switch.   0.00E+00  6.98E-01  0.00E+00  0.00E+00  |  X0002BX0010B                .698                                             0
Switch.   0.00E+00  6.98E-01  0.00E+00  0.00E+00  |  X0002CX0010C                .698                                             0
Switch.   7.10E-01  0.00E+00  0.00E+00  0.00E+00  |  X0002AX0010A       .71                                                       0
Switch.   7.10E-01  0.00E+00  0.00E+00  0.00E+00  |  X0002BX0010B       .71                                                       0
Switch.   7.10E-01  0.00E+00  0.00E+00  0.00E+00  |  X0002CX0010C       .71                                                       0
Blank card ending switches.   KSWTCH = 13.        |BLANK SWITCH
Source.   4.29E+05  6.00E+01  0.00E+00 -1.00E+00  |14X0007A  428660.705       60.                                     -1.      100.
Source.   4.29E+05  6.00E+01 -1.20E+02 -1.00E+00  |14X0007B  428660.705       60.     -120.                           -1.      100.
Source.   4.29E+05  6.00E+01 -2.40E+02 -1.00E+00  |14X0007C  428660.705       60.     -240.                           -1.      100.
Blank card ends electric sources.  KCONST = 3     |BLANK SOURCE

     Total network loss  P-loss  by summing injections =   8.169492061606E+07

Card of names for time-step loop output.          |  X0003AX0003BX0003C
Output voltage differences for pairs of A6 names  |-5X0003BX0003CX0003AX0003BX0003CX0003A
Blank card ending requests for output variables.  |BLANK OUTPUT

Column headings for the  7   EMTP output variables follow.  These are divided among the 5 possible classes as follows ....
  First  6     output variables are electric-network voltage differences (upper voltage minus lower voltage);
  Next   1     output variables are branch currents (flowing from the upper node to the lower node);
   Step      Time      X0003A     X0003B     X0003C     X0003B     X0003A     X0003C     X0003C
                                                        X0003C     X0003B     X0003A     XX0009
 ***      Phasor I(0) =  5.4753835E+02                     Switch  "X0001B"  to  "X0002B"  closed in the steady-state.
 ***      Phasor I(0) =  1.3090849E+02                     Switch  "X0001A"  to  "X0002A"  closed in the steady-state.
 ***      Phasor I(0) = -6.8117136E+02                     Switch  "X0001C"  to  "X0002C"  closed in the steady-state.
 ***                    Switch  "X0002A"  to  "X0010A"  closed  after  0.00000000E+00  sec.
 ***                    Switch  "X0002B"  to  "X0010B"  closed  after  0.00000000E+00  sec.
 ***                    Switch  "X0002C"  to  "X0010C"  closed  after  0.00000000E+00  sec.
      0       0.0   437285.92 -285781.34 -145250.65  -140530.7 723067.264 -582536.57        0.0
    500     .5E-3  442873.821 -217319.28 -219787.46 2468.17918 660193.104 -662661.28        0.0
   1000     .1E-2   434678.53 -141739.69 -286342.24 144602.548 576418.222 -721020.77        0.0
   1500     .0015  410828.191 -60753.193 -342782.76  282029.57 471581.384 -753610.95        0.0
   2000      .002  375017.674 87091.6314 -474202.53 561294.163 287926.042  -849220.2        0.0
   2500     .0025  311731.266 201570.897 -506508.25 708079.151 110160.369 -818239.52        0.0
   3000      .003  233416.362 290539.249 -516031.95 806571.203 -57122.887 -749448.32        0.0
   3500     .0035  141430.004 360041.254 -495898.36 855939.614 -218611.25 -637328.36        0.0
   4000      .004  46339.5359 419017.337  -452520.4 871537.732  -372677.8 -498859.93        0.0
   4500     .0045  -47507.407 461764.209 -398537.67 860301.878 -509271.62 -351030.26        0.0
   5000      .005  -142660.22 486111.469 -332495.74  818607.21 -628771.69 -189835.52        0.0
   5500     .0055   -238776.9  472956.12 -227978.06  700934.18 -711733.02 10798.8429        0.0
   6000      .006   -312854.7 438529.927 -120065.66 558595.592 -751384.63 192789.034        0.0
   6500     .0065  -371077.57 396758.587  -20546.99 417305.577 -767836.16 350530.578        0.0
   7000      .007  -413790.07 349659.802 65308.6623 284351.139 -763449.87 479098.731        0.0
   7500     .0075  -438780.46 296755.815  136988.65 159767.166 -735536.27 575769.107        0.0
   8000      .008  -449281.86 235564.848 202176.448 33388.3992 -684846.71 651458.307        0.0
   8500     .0085  -445861.42 167405.448 261788.565 -94383.117 -613266.87 707649.982        0.0
   9000      .009  -422575.63 98657.7293 306292.569 -207634.84 -521233.36 728868.195        0.0
   9500     .0095  -387723.47 34710.8151 337086.654 -302375.84 -422434.29 724810.124        0.0
  10000       .01  -344547.91 -30012.501 359544.503   -389557. -314535.41  704092.41        0.0
 ***                                                             Close switch  "X0003C"  to  "XX0009"  after  1.00010000E-02  sec.
  10500     .0105  -384209.71 -193568.89 36322.0342 -229890.92 -190640.82 420531.741 1210.73447
  11000      .011   -335767.4 -265450.34 39398.4247 -304848.77 -70317.054 375165.822 1313.28082
  11500     .0115  -268859.82 -338779.63 42019.5866 -380799.22 69919.8061 310879.409 1400.65289
  12000      .012   -201722.8 -419433.11 46361.3514 -465794.46 217710.303 248084.156 1545.37838
  12500     .0125  -120505.06 -468485.95 47709.2227 -516195.18 347980.896 168214.279 1590.30742
  13000      .013  -11656.786 -502168.38 45765.1772 -547933.56 490511.592 57421.9629 1525.50591
  13500     .0135   31305.958 -541571.74   44766.77 -586338.51 572877.696 13460.8121 1492.22567
  14000      .014  39607.9691 -632771.22 54383.7199 -687154.94 672379.194 14775.7508 1812.79066
  14500     .0145  174748.184 -585245.94 63378.4425 -648624.38 759994.121 -111369.74 2112.61475
  15000      .015   297800.93 -500614.36 67315.3545 -567929.71 798415.288 -230485.58 2243.84515
  15500     .0155  384597.223 -407876.46 64117.7514 -471994.21 792473.686 -320479.47 2137.25838
  16000      .016  456949.546 -310606.83 57269.4908 -367876.32 767556.374 -399680.06 1908.98303
  16500     .0165   516629.18 -200757.04 48495.4101 -249252.45 717386.224 -468133.77 1616.51367
  17000      .017  565966.657 -77573.638  35956.745 -113530.38 643540.295 -530009.91 1198.55817
  17500     .0175  588001.243 41588.6861 21267.6672 20321.0189 546412.557 -566733.58 708.922241
  18000      .018  576165.284 161009.164 11433.2999 149575.864  415156.12 -564731.98 381.109997
  18500     .0185  542690.351 270961.471 6081.95025  264879.52  271728.88  -536608.4 202.731675
  19000      .019  487519.284  357920.67 -668.29047 358588.961 129598.614 -488187.57 -22.276349
  19500     .0195  414630.948 427977.153 -8789.5424 436766.696 -13346.206 -423420.49 -292.98475
  20000       .02  323649.475 481492.693 -17343.537  498836.23 -157843.22 -340993.01 -578.11791
  20500     .0205  222651.694 519228.715 -25885.696 545114.411 -296577.02 -248537.39 -862.85655
  21000      .021  118412.442 542372.618 -34732.775 577105.392 -423960.18 -153145.22 -1157.7592
  21500     .0215  5529.13306 539760.872 -43023.974 582784.846 -534231.74 -48553.107 -1434.1325
  22000      .022  -112398.16 511071.857  -48510.04 559581.897 -623470.02 63888.1212 -1617.0013
  22500     .0225   -219431.9 472577.695 -50700.401 523278.096 -692009.59 168731.495 -1690.0134
  23000      .023  -309614.83 430884.263 -49992.608 480876.871 -740499.09 259622.223 -1666.4203
  23500     .0235  -383958.97 381432.086 -47240.067 428672.152 -765391.06 336718.903 -1574.6689
  24000      .024  -443591.04 320474.626 -42807.248 363281.875 -764065.67 400783.793 -1426.9083
  24500     .0245  -486973.14 248325.291 -36936.147 285261.438 -735298.43 450036.991 -1231.2049
  25000      .025  -512040.15 167974.745 -30308.185 198282.929  -680014.9  481731.97 -1010.2728
  25500     .0255  -520847.28 80268.3765 -23240.935 103509.311 -601115.66 497606.344 -774.69783
  26000      .026  -514168.23 -13182.976 -15128.641 1945.66462 -500985.25 499039.589 -504.28802
  26500     .0265  -492104.44 -110553.82 -5566.6684 -104987.15 -381550.62 486537.776 -185.55561
  27000      .027  -455697.71 -209204.08 4954.99832 -214159.07 -246493.64 460652.712 165.166611
  27500     .0275  -405762.51 -304575.41 15675.6898  -320251.1  -101187.1 421438.198 522.522993
  28000      .028  -343104.21 -391405.71  26018.897 -417424.61 48301.4931 369123.112 867.296567
  28500     .0285  -268256.27  -464316.7 35502.5602 -499819.26  196060.43 303758.835 1183.41867
  29000      .029  -182272.37 -519115.73 43555.1971 -562670.92 336843.353 225827.569  1451.8399
  29500     .0295  -88806.182 -554180.35 49771.9934 -603952.35 465374.173 138578.176 1659.06645
  30000       .03  8039.39748 -568555.86 54112.8065 -622668.67  576595.26 46073.4091 1803.76022
  30500     .0305  105710.208 -560603.95 56682.0816 -617286.03  666314.16 -49028.127 1889.40272
  31000      .031   202171.93 -529193.36 57560.2792 -586753.64 731365.294 -144611.65 1918.67597
  31500     .0315   294207.58 -475397.04 56755.5215 -532152.56 769604.615 -237452.06 1891.85072
  32000      .032  377634.876 -402442.26 54275.4769 -456717.73 780077.134  -323359.4 1809.18256
  32500     .0325  448559.202 -314386.52 50147.1004 -364533.62 762945.718  -398412.1 1671.57001
  33000      .033  503895.989 -215424.83 44363.7169 -259788.55 719320.823 -459532.27 1478.79056
  33500     .0335  541084.921  -110011.4  36979.678 -146991.08 651096.323 -504105.24 1232.65593
  34000      .034  558202.592 -2625.5799 28250.0201   -30875.6 560828.172 -529952.57 941.667336
  34500     .0345  554077.118 102437.336 18591.2253 83846.1105 451639.782 -535485.89 619.707511
  35000      .035  528503.597 201264.691 8432.76816 192831.923 327238.906 -520070.83 281.092272
  35500     .0355  482421.833 290634.011 -1846.4557 292480.467 191787.821 -484268.29 -61.548522
  36000      .036  417873.909 368162.331 -11890.343 380052.674 49711.5775 -429764.25 -396.34478
  36500     .0365  337887.232 432262.169 -21360.112 453622.281 -94374.937 -359247.34 -712.00374
  37000      .037  246089.726 481812.357 -29968.406 511780.763 -235722.63 -276058.13 -998.94686
  37500     .0375  146214.946 515761.785 -37474.683 553236.468 -369546.84 -183689.63 -1249.1561
  38000      .038  42017.5544 533137.015 -43648.773 576785.788 -491119.46 -85666.327 -1454.9591
  38500     .0385   -62601.82 533360.715 -48261.064 581621.779 -595962.54 14340.7566 -1608.7021
  39000      .039  -163690.21 516423.554 -51107.065 567530.619 -680113.77 112583.147 -1703.5688
  39500     .0395  -257585.62 482737.397 -52039.673 534777.071 -740323.02 205545.951 -1734.6558
  40000       .04  -341181.35 432986.127 -50987.017 483973.144 -774167.48 290194.338 -1699.5672
  40500     .0405  -411923.48 368219.904 -47965.224 416185.128 -780143.39 363958.261 -1598.8408
  41000      .041  -467741.62 290037.379 -43091.809 333129.188   -757779. 424649.811 -1436.3936
  41500     .0415  -507070.95 200673.713 -36576.831 237250.544 -707744.66 470494.116 -1219.2277
  42000      .042  -528900.21 102972.743 -28689.695 131662.438 -631872.95 500210.517 -956.32316
  % % % % % %   Suspended simulation;  plot data space exhausted;  SPY SPACE is required.   LIMBUF =  340000.
  % % % % % %   Suspended simulation;  plot data space exhausted;  SPY SPACE is required.   LIMBUF =  340000.
  +++  Time-sharing disabled.   Send  user-keyed interrupt to silence alarm.
   Current values.  INDBUF  INDBEG  LIMBUF  MFLUSH  NUMDCD  KCARD1  KCARD2
                    339994      50  340000    1000      46       1      50
Plot timespan now in memory (in sec) = 0.00000000E+00   4.24930000E-02
   ++++  Begin plot-data copy from memory to disk.   MFLUSH, INDBUF, N4, Tbeg,  Tend = 1001  339994       1  -1.00000E+00
1.00000E+19
  42500     .0425  -532778.76 271.632874 -19729.564 20001.1966 -533050.39 513049.198 -657.65213
  43000      .043   -518779.3 -103740.14 -10016.626  -93723.51 -415039.16 508762.672 -333.88752
  43500     .0435   -487448.6 -205152.29 108.530145 -205260.82 -282296.31 487557.133 3.61767149
  44000      .044  -439767.98 -299972.99  10293.113 -310266.11 -139794.99 450061.098 343.103766
  44500     .0445  -377126.56 -384308.47 20183.4909 -404491.96 7181.91152 397310.048 672.783032
  45000      .045  -301333.94 -454611.02 29432.3345 -484043.35 153277.074 330766.276 981.077817
  45500     .0455  -214660.08 -507951.09 37707.0043 -545658.09 293291.014  252367.08 1256.90014
  46000      .046  -119838.35 -542212.07 44704.5768 -586916.65 422373.725 164542.925 1490.15256
  46500     .0465  -19995.065 -556158.82 50169.4298 -606328.25 536163.757 70164.4945 1672.31433
  47000      .047  81464.6294 -549425.39 53906.5632 -603331.95 630890.017 -27558.066 1796.88544
  47500     .0475  180966.732 -522488.75 55788.7246 -578277.47 703455.478 -125178.01 1859.62415
  48000      .048  274877.913 -476631.85 55759.0946 -532390.95 751509.764 -219118.82 1858.63649
  48500     .0485  359647.356 -413857.73 53829.7172 -467687.45 773505.088 -305817.64 1794.32391
  49000      .049  431978.121 -336749.39 50075.7353 -386825.12 768727.509 -381902.39 1669.19118
  49500     .0495  488998.244 -248309.27 44628.8932 -292938.17 737307.517 -444369.35 1487.62977
  50000       .05  528408.108 -151812.98 37673.7332 -189486.71 680221.089 -490734.38 1255.79111
  50500     .0505  548594.736 -50689.096 29445.3472 -80134.443 599283.832 -519149.39 981.511574
  51000      .051  548711.238 51582.1783 20224.8306 31357.3476 497129.059 -528486.41 674.161021
  51500     .0515   528720.18 151563.284 10330.9901 141232.293 377156.896 -518389.19 344.366337
  52000      .052  489399.415 245951.786  109.76958 245842.016  243447.63 -489289.65 3.65898601
  52500     .0525  432307.816 331666.819 -10077.719 341744.538 100640.997 -442385.53 -335.92398
  53000      .053  359705.933 405920.606 -19868.834  425789.44 -46214.673 -379574.77 -662.29447
  53500     .0535  274433.505 466274.308 -28914.082 495188.389  -191840.8 -303347.59 -963.80272
  54000      .054  179759.937  510689.92 -36891.078 547580.998 -330929.98 -216651.02 -1229.7026
  54500     .0545  79229.6285 537591.095  -43516.43 581107.524 -458361.47 -122746.06 -1450.5477
  55000      .055  -23485.352 545932.398  -48555.35 594487.748 -569417.75 -25069.998 -1618.5117
  55500     .0555  -124724.24 535263.163 -51829.277 587092.441  -659987.4 72894.9623 -1727.6426
 ***                                                             Open  switch  "X0001B"  to  "X0002B"  after  5.58690000E-02  sec.
  56000      .056  -220967.25 505772.636 -53221.617 558994.253 -726739.88 167745.628 -1774.0539
  56500     .0565  -308949.19 458312.098  -52681.77 510993.868 -767261.29 256267.422  -1756.059
  57000      .057  -385750.93 394393.584 -50227.555 444621.139 -780144.51 335523.375 -1674.2518
  57500     .0575  -448868.97 316162.182 -45945.638  362107.82 -765031.15 402923.331 -1531.5213
  58000      .058  -508368.63 261733.004 -41410.278 303143.282 -770101.63 466958.351 -1380.3426
  58500     .0585  -538412.06 219463.039 -34349.015 253812.054  -757875.1 504063.048 -1144.9672
  59000      .059  -548699.85 171702.712 -25883.082 197585.794 -720402.56 522816.764 -862.76941
 ***                                                             Open  switch  "X0001A"  to  "X0002A"  after  5.91880000E-02  sec.
  59500     .0595   -541955.6 114644.488 -16451.878 131096.366 -656600.09 525503.722 -548.39592
 ***                                                             Open  switch  "X0001C"  to  "X0002C"  after  5.99910000E-02  sec.
  60000       .06   -518304.2 48952.1767 -6376.4786 55328.6553 -567256.38 511927.722 -212.54929
  60500     .0605  -476154.47 -23225.958 4008.58097 -27234.539 -452928.51 480163.052 133.619366
  61000      .061  -426349.32  -97200.48 14719.5586 -111920.04 -329148.84 441068.883 490.651955
  61500     .0615    -415525. -153764.34   25448.21 -179212.55 -261760.66 440973.206 848.273668
  62000      .062  -349746.88 -172392.08 29164.6086 -201556.69  -177354.8 378911.488 972.153622
  62500     .0625  -282139.44 -198367.39 26663.7063  -225031.1 -83772.044 308803.142 888.790211
  63000      .063  -217350.89  -240844.5   22178.84 -263023.34 23493.6056 239529.734 739.294666
  63500     .0635  -139647.77 -285394.59 16729.4616 -302124.05  145746.82 156377.231 557.648722
  64000      .064   -50572.58 -328145.58  10293.618  -338439.2 277572.999 60866.1983 343.120599
  64500     .0645  24334.1142 -362288.37 3343.86658 -365632.24 386622.485 -20990.248 111.462219
  65000      .065  76172.1533 -379065.46 -3349.4101 -375716.05 455237.616 -79521.563   -111.647
  65500     .0655  127105.434 -396378.49 -10681.476 -385697.02 523483.928 -137786.91  -356.0492
  66000      .066  158508.908 -428803.91 -13950.193 -414853.72 587312.819  -172459.1 -465.00643
  66500     .0665   219676.84  -439827.6 -13141.342 -426686.26 659504.442 -232818.18 -438.04474
  67000      .067  284294.302 -445490.44 -11419.651 -434070.79 729784.742 -295713.95 -380.65502
  67500     .0675  346135.139 -452598.81 -8621.2602 -443977.55  798733.95  -354756.4 -287.37534
  68000      .068  381340.901 -442612.03 -4333.4402 -438278.59 823952.932 -385674.34 -144.44801
  68500     .0685  402498.746 -412571.33 625.976499  -413197.3 815070.072 -401872.77 20.8658833
  69000      .069  416457.489 -380931.25 5886.06034 -386817.31 797388.743 -410571.43 196.202011
  69500     .0695  439978.982 -338459.63 9838.21928 -348297.85 778438.609 -430140.76 327.940643
  70000       .07   472190.76 -289364.17 10671.6888 -300035.85 761554.925 -461519.07 355.722959
  70500     .0705  490497.518 -245077.13 10431.1521 -255508.29 735574.651 -480066.37  347.70507
  71000      .071  504625.587 -203981.67 10055.7862 -214037.45 708607.254  -494569.8 335.192873
  71500     .0715  491977.885 -139072.46 8715.70928 -147788.17 631050.343 -483262.18 290.523643
  72000      .072  464842.345  -68360.49 5994.91479 -74355.405 533202.836 -458847.43 199.830493
  72500     .0725  430540.462 -2269.0824 2664.35497 -4933.4374 432809.545 -427876.11 88.8118324
  73000      .073  398058.303 57449.7438 -970.64277 58420.3866 340608.559 -399028.95 -32.354759
  73500     .0735  354400.464 101781.484 -3700.8372 105482.321  252618.98  -358101.3 -123.36124
  74000      .074  314551.989 147792.711 -4685.3781 152478.089 166759.278 -319237.37 -156.17927
  74500     .0745  274275.322  191523.26 -4764.2017 196287.461 82752.0629 -279039.52 -158.80672
  75000      .075  206650.194 246658.462 -4489.3474 251147.809 -40008.267 -211139.54 -149.64491
  75500     .0755   130917.94 295853.826 -3553.6508 299407.477 -164935.89 -134471.59 -118.45503
  76000      .076  59605.6302 338687.915 -1830.4283 340518.343 -279082.28 -61436.059 -61.014277
  76500     .0765  -4142.0048  370195.76 357.012876 369838.747 -374337.76 4499.01763 11.9004292
  77000      .077  -61994.671 392018.417  2699.5725 389318.845 -454013.09 64694.2436   89.98575
  77500     .0775  -109329.19 409114.809 4079.20729 405035.602   -518444.   113408.4 135.973576
  78000      .078  -161725.54 418204.678 5017.40638 413187.272 -579930.22 166742.944 167.246879
  78500     .0785  -228771.22 433511.372 5802.79017 427708.582  -662282.6 234574.014 193.426339
  79000      .079  -288685.24 442852.816 5922.24844 436930.567 -731538.05 294607.488 197.408281
  79500     .0795  -336798.61 442699.072 5203.60929 437495.462 -779497.68 342002.219 173.453643
  80000       .08  -373832.73  427358.36 4049.61471 423308.746 -801191.09 377882.344 134.987157
  80500     .0805  -400117.72 401596.557 2632.47976 398964.077 -801714.27 402750.197 87.7493252
  81000      .081  -419859.63 361984.178 1401.28253 360582.895 -781843.81  421260.91 46.7094176
  81500     .0815  -440952.92 322381.894 757.724317  321624.17 -763334.81 441710.645 25.2574772
  82000      .082  -463601.87  289694.32 255.990902 289438.329 -753296.19 463857.856 8.53303007
  82500     .0825  -475961.96 250649.911 -361.23582 251011.147 -726611.87 475600.721 -12.041194
  83000      .083  -476211.44 202071.272 -625.48546 202696.758 -678282.71 475585.951 -20.849515
  83500     .0835  -461732.29 144841.069 -272.85367 145113.922 -606573.36 461459.436 -9.0951222
  84000      .084  -435783.72 83981.3164 426.949415  83554.367 -519765.03 436210.665 14.2316472
  84500     .0845  -400602.99 17467.9435 1514.98984 15952.9537 -418070.94 402117.984 50.4996614
  % % % % % %   Suspended simulation;  plot data space exhausted;  SPY SPACE is required.   LIMBUF =  340000.
  % % % % % %   Suspended simulation;  plot data space exhausted;  SPY SPACE is required.   LIMBUF =  340000.
  +++  Time-sharing disabled.   Send  user-keyed interrupt to silence alarm.
   Current values.  INDBUF  INDBEG  LIMBUF  MFLUSH  NUMDCD  KCARD1  KCARD2
                    339994      50  340000    1001      46       1      50
Plot timespan now in memory (in sec) = 4.24919985E-02   8.49850000E-02
   ++++  Begin plot-data copy from memory to disk.   MFLUSH, INDBUF, N4, Tbeg,  Tend = 1002  339994       1  -1.00000E+00
1.00000E+19
  85000      .085  -368410.59 -38918.333 2448.53965 -41366.873 -329492.26 370859.134 81.6179882
  85500     .0855  -337998.76  -88105.48 2951.46421 -91056.944 -249893.28 340950.224 98.3821404
  86000      .086  -298995.05 -137670.25 3282.83695 -140953.09  -161324.8 302277.891 109.427898
  86500     .0865  -247725.06 -187957.66 3539.16883 -191496.83 -59767.403  251264.23 117.972294
  87000      .087  -185685.69 -238366.05  3487.8426 -241853.89 52680.3608  189173.53  116.26142
  87500     .0875  -119749.76 -286815.79 3163.38651 -289979.18 167066.031 122913.148 105.446217
  88000      .088  -51022.882 -333570.35 2816.28784 -336386.63 282547.464 53839.1701 93.8762614
  88500     .0885  4474.87923 -365805.64  2373.0324 -368178.67 370280.516 -2101.8468 79.1010799
  89000      .089  54721.7197 -388351.28 1814.16624 -390165.45 443072.999 -52907.554 60.4722079
  89500     .0895  108882.842 -405457.17 1180.38927 -406637.56  514340.01 -107702.45 39.3463091
  90000       .09   167815.14 -419388.16  561.73616  -419949.9 587203.303  -167253.4 18.7245387
  90500     .0905  226959.318 -430454.25 110.037541 -430564.29 657413.566 -226849.28 3.66791804
  91000      .091  282885.771 -436128.36 11.1468061 -436139.51 719014.131 -282874.62 .371560204
  91500     .0915  333295.031 -434685.32 242.279878  -434927.6 767980.354 -333052.75 8.07599593
  92000      .092  365117.165 -416914.55 593.171679 -417507.72 782031.717 -364523.99 19.7723893
  92500     .0925  389411.046 -389909.13 785.359653 -390694.49 779320.178 -388625.69 26.1786551
  93000      .093  411449.907 -358695.52 829.896573 -359525.42 770145.427 -410620.01 27.6632191
  93500     .0935  432189.346 -325533.15  938.22063 -326471.37 757722.499 -431251.13  31.274021
  94000      .094  448702.231 -288888.09 1137.99151 -290026.08  737590.32 -447564.24 37.9330502
  94500     .0945  459466.675 -248439.59 1334.35786 -249773.95 707906.265 -458132.32 44.4785954
  95000      .095  458258.729 -202184.59 1475.59332 -203660.18  660443.32 -456783.14  49.186444
  95500     .0955   438738.55 -145051.63 1482.26335  -146533.9 583790.184 -437256.29 49.4087784
  96000      .096  411908.097 -85492.816 1249.50319  -86742.32 497400.913 -410658.59 41.6501064
  96500     .0965  382442.291 -27654.022 944.191075 -28598.213 410096.313  -381498.1 31.4730358
  97000      .097  352089.696 26983.0265 679.586578 26303.4399  325106.67 -351410.11 22.6528859
  97500     .0975  318054.323 80051.3762 433.351234  79618.025 238002.947 -317620.97 14.4450411
  98000      .098  279543.085 129637.141 309.724077 129327.417 149905.943 -279233.36 10.3241359
  98500     .0985  229643.804 180438.476 368.948651 180069.527 49205.3278 -229274.86 12.2982884
  99000      .099  168731.132 234401.947 448.077238 233953.869 -65670.815 -168283.05 14.9359079
  99500     .0995  106595.696 283380.252 451.938649 282928.313 -176784.56 -106143.76 15.0646216
 100000       0.1  47835.1741  324430.88 477.733369 323953.146 -276595.71 -47357.441 15.9244456
 100500     .1005  -6984.1933 356446.434 564.154465 355882.279 -363430.63 7548.34779 18.8051488
 101000      .101  -60421.751 381691.833 715.898221 380975.935 -442113.58 61137.6494  23.863274
 101500     .1015  -111857.63  399003.55 1012.85181 397990.698 -510861.18 112870.479 33.7617272
 102000      .102   -168486.9 415133.069 1341.51877 413791.551 -583619.97 169828.421 44.7172925
 102500     .1025  -226940.91 428595.429  1496.8574 427098.572 -655536.34 228437.768 49.8952465
 103000      .103  -279016.35 433047.743 1496.70692 431551.036  -712064.1  280513.06 49.8902307
 103500     .1035  -321093.01 426873.235 1462.40163 425410.833 -747966.25 322555.415 48.7467209
 104000      .104  -354041.15 410451.034 1446.78975 409004.244 -764492.19 355487.941  48.226325
 104500     .1045  -380147.95 386640.363 1449.43239 385190.931 -766788.31  381597.38 48.3144132
 105000      .105  -399697.06 355744.258 1506.34204 354237.916 -755441.32 401203.403 50.2114014
 105500     .1055  -420162.74 324644.395 1550.43782 323093.957 -744807.13 421713.177 51.6812606
 106000      .106  -436442.81 290564.856 1495.79363 289069.062 -727007.67 437938.607 49.8597875
 106500     .1065  -441942.82 249688.485 1389.58711 248298.898 -691631.31 443332.408 46.3195704
 107000      .107  -435014.04  201352.93 1319.56123 200033.369 -636366.97 436333.602 43.9853742
 107500     .1075  -418062.61 147452.792 1308.14757 146144.644  -565515.4 419370.758 43.6049191
 108000      .108  -393623.17 90532.5355 1355.81779 89176.7177 -484155.71 394978.988 45.1939264
 108500     .1085   -364104.5 32617.8976 1480.54848 31137.3491  -396722.4 365585.051 49.3516161
 109000      .109  -335562.36 -20153.237 1602.33874 -21755.576 -315409.12 337164.699 53.4112914
 109500     .1095  -302339.53 -71064.843  1608.6715 -72673.515 -231274.69 303948.203 53.6223834
 110000       .11  -260292.61 -122791.11 1529.64011 -124320.75  -137501.5 261822.252 50.9880037
 110500     .1105  -209679.68 -175610.32 1461.87498 -177072.19  -34069.36 211141.553 48.7291659
 111000      .111  -153965.33 -226762.79 1419.85303 -228182.64  72797.462 155385.182 47.3284342
 111500     .1115  -95570.334 -274732.64 1417.89525 -276150.53 179162.302 96988.2298 47.2631751
 112000      .112  -38805.799 -316273.31   1446.959 -317720.27 277467.513 40252.7579 48.2319667
 112500     .1125  12531.2243 -347497.67 1408.92424 -348906.59 360028.891   -11122.3 46.9641414
 113000      .113  63749.2618 -372484.53  1241.4135 -373725.95 436233.794 -62507.848 41.3804498
 113500     .1135  117461.526 -393524.82 1037.76848 -394562.59 510986.348 -116423.76 34.5922828
 114000      .114  172669.986 -410744.92 890.302932 -411635.23 583414.908 -171779.68 29.6767644
 114500     .1145  225599.113 -421667.88 789.175917 -422457.06 647266.998 -224809.94 26.3058639
 115000      .115  274489.019 -426139.65  755.54304 -426895.19 700628.667 -273733.48  25.184768
 115500     .1155  314227.194 -420708.64 766.283998 -421474.92 734935.834 -313460.91 25.5427999
 116000      .116   343852.01 -404310.53 725.152091 -405035.68 748162.541 -343126.86 24.1717364
 116500     .1165  368687.835 -381571.89 604.824892 -382176.72 750259.725 -368083.01 20.1608297
 117000      .117  390995.288 -354776.18 487.204745 -355263.39 745771.472 -390508.08 16.2401582
 117500     .1175  409586.857 -324344.53 420.581135 -324765.11 733931.387 -409166.28 14.0193712
 118000      .118  421276.094 -288773.33 394.664937 -289167.99 710049.423 -420881.43 13.1554979
 118500     .1185  425329.334 -248777.59 432.044789 -249209.64 674106.926 -424897.29  14.401493
 119000      .119   417229.66 -201304.96 491.431707 -201796.39 618534.619 -416738.23 16.3810569
 119500     .1195  398811.064 -147715.31 476.348938 -148191.66 546526.379 -398334.72 15.8782979
 120000       .12  375527.894 -92746.324 383.464167 -93129.788 468274.218 -375144.43 12.7821389
 120500     .1205  349597.641 -38717.926 295.163792  -39013.09 388315.566 -349302.48 9.83879305
 121000      .121  319997.222 14039.0982 256.415522 13782.6827 305958.124 -319740.81 8.54718406
 121500     .1215  284857.737 66344.9781   269.1076 66075.8705 218512.759 -284588.63 8.97025334
 122000      .122   244019.38 117568.216 341.225964  117226.99 126451.164 -243678.15 11.3741988
 122500     .1225  194300.703 170217.934 421.035615 169796.899 24082.7682 -193879.67 14.0345205
 123000      .123  139531.857 221607.881 430.671789 221177.209 -82076.024 -139101.19 14.3557263
 123500     .1235  84958.5431 267696.904  392.70881 267304.195 -182738.36 -84565.834 13.0902937
 124000      .124  32549.3584  306766.86 384.638914 306382.221  -274217.5 -32164.719 12.8212971
 124500     .1245  -18701.051 339337.202 428.018872 338909.183 -358038.25 19129.0694 14.2672957
 125000      .125  -69668.337 366033.445 517.752101 365515.693 -435701.78 70186.0887 17.2584034
 125500     .1255  -120913.39 387215.168 649.465515 386565.702 -508128.55 121562.852 21.6488505
 126000      .126  -174245.27 405110.558  766.76685 404343.791 -579355.83 175012.034  25.558895
 126500     .1265  -225078.55 416923.362 807.815243 416115.547 -642001.91 225886.363 26.9271748
 127000      .127  -269113.79 419936.216 806.842032 419129.374 -689050.01 269920.633 26.8947344
  % % % % % %   Suspended simulation;  plot data space exhausted;  SPY SPACE is required.   LIMBUF =  340000.
  % % % % % %   Suspended simulation;  plot data space exhausted;  SPY SPACE is required.   LIMBUF =  340000.
  +++  Time-sharing disabled.   Send  user-keyed interrupt to silence alarm.
   Current values.  INDBUF  INDBEG  LIMBUF  MFLUSH  NUMDCD  KCARD1  KCARD2
                    339994      50  340000    1002      46       1      50
Plot timespan now in memory (in sec) = 8.49839970E-02   1.27477000E-01
   ++++  Begin plot-data copy from memory to disk.   MFLUSH, INDBUF, N4, Tbeg,  Tend = 1003  339994       1  -1.00000E+00
1.00000E+19
 127500     .1275   -305299.6 413550.787 829.254508 412721.532 -718850.38 306128.852 27.6418169
 128000      .128  -335236.69 399438.553 881.254243 398557.299 -734675.24 336117.944 29.3751414
 128500     .1285  -359590.29 378470.036 965.357698 377504.679 -738060.33 360555.649 32.1785899
 129000      .129   -379983.8 352448.756 1073.39608  351375.36 -732432.55 381057.193 35.7798693
 129500     .1295  -397330.52 323382.002 1144.11066 322237.891 -720712.52 398474.632 38.1370219
 130000       .13  -407497.02 288958.152 1136.87906 287821.273 -696455.18 408633.902 37.8959685
 130500     .1305  -407726.02 247811.559 1100.88588 246710.673 -655537.58 408826.905  36.696196
 131000      .131  -398344.09 200501.418 1093.08611 199408.332 -598845.51 399437.175 36.4362038
 131500     .1315  -381821.72 149538.192 1111.90329 148426.289 -531359.91 382933.622 37.0634429
 132000      .132  -359180.09 96080.9508 1160.17917 94920.7716 -455261.04 360340.271  38.672639
 132500     .1325  -333177.33 42908.3198 1218.63377 41689.6861 -376085.65 334395.968 40.6211257
 133000      .133  -304226.36 -8597.0558 1226.02462 -9823.0804  -295629.3 305452.384 40.8674873
 133500     .1335  -269134.45 -60340.059 1165.19348 -61505.253 -208794.39  270299.64 38.8397827
 134000      .134   -226649.8 -112890.93 1091.47211  -113982.4 -113758.87 227741.272 36.3824036
 134500     .1345  -178356.21 -165078.08 1046.03817 -166124.12 -13278.132 179402.252  34.867939
 135000      .135  -127240.79 -214437.99 1022.20577 -215460.19 87197.1927 128262.999 34.0735258
 135500     .1355  -74754.387 -259931.14  1020.7782 -260951.92 185176.753 75775.1653 34.0259398
 136000      .136  -24105.351 -298831.73  1016.9673  -299848.7 274726.377 25122.3185 33.8989099
 136500     .1365  24942.9436 -330920.75 957.718261 -331878.47 355863.696 -23985.225  31.923942
 137000      .137  74906.1534 -358177.18 844.877341 -359022.06 433083.333 -74061.276  28.162578
 137500     .1375  126120.924 -381181.16 735.167256 -381916.33 507302.089 -125385.76 24.5055752
 138000      .138   176425.54 -398874.43 657.879546 -399532.31 575299.968 -175767.66 21.9293182
 138500     .1385  223169.926 -409683.88  608.00914 -410291.89 632853.807 -222561.92 20.2669713
 139000      .139  264897.208 -413088.14  583.71973 -413671.86 677985.343 -264313.49 19.4573243
 139500     .1395  299031.673 -407297.67 554.711432 -407852.38 706329.344 -298476.96 18.4903811
 140000       .14  326861.342 -393534.61 476.377225 -394010.99 720395.951 -326384.97 15.8792408
 140500     .1405  350792.051 -374198.04 364.704168 -374562.74 724990.086 -350427.35 12.1568056
 141000      .141  371026.254 -350298.08 274.547432 -350572.63 721324.335 -370751.71 9.15158106
 141500     .1415  385642.644  -321237.8 222.752611 -321460.55 706880.447 -385419.89 7.42508703
 142000      .142  393074.426 -286610.14 203.287554 -286813.43 679684.569 -392871.14 6.77625179
 142500     .1425  392308.742   -246414. 208.733731 -246622.74 638722.746 -392100.01 6.95779103
 143000      .143  382176.313 -200050.56  203.91119 -200254.48 582226.878  -381972.4 6.79703966
 143500     .1435  365165.275 -149859.14 155.236112 -150014.37  515024.41 -365010.04 5.17453708
 144000      .144  343914.427 -98454.485 89.5263966 -98544.011 442368.911  -343824.9 2.98421322
 144500     .1445  318895.136 -47036.993 54.9909856 -47091.984 365932.129 -318840.15 1.83303285
 145000      .145  288802.785 4728.23199  57.427646 4670.80434 284074.553 -288745.36 1.91425487
 145500     .1455  253257.065 56526.0021 90.8502118 56435.1519 196731.063 -253166.22 3.02834039
 146000      .146  211761.257 108317.382 144.106201 108173.276 103443.875 -211617.15 4.80354005
 146500     .1465  164590.363 159948.479 179.977338 159768.502 4641.88415 -164410.39  5.9992446
 147000      .147  115021.298 208801.527 176.680186 208624.847 -93780.229 -114844.62 5.88933954
 147500     .1475  65697.1615 252679.661 167.360552 252512.301  -186982.5 -65529.801 5.57868507
 148000      .148  17113.4542 290853.812 190.736736 290663.075 -273740.36 -16922.718 6.35789119
 148500     .1485  -31638.341 323930.555 245.410588 323685.144  -355568.9 31883.7518 8.18035293
 149000      .149  -80332.953 351698.949 324.822079 351374.127  -432031.9 80657.7754 10.8274026
 149500     .1495  -129332.99 374682.503 413.142783  374269.36 -504015.49 129746.131 13.7714261
 150000       .15  -177555.36 392647.927 473.117592  392174.81 -570203.29 178028.481 15.7705864
 150500     .1505  -221780.71 403546.788 494.541225 403052.247  -625327.5 222275.254 16.4847075
 151000      .151  -259997.61 406182.289 513.995401 405668.293  -666179.9 260511.602   17.13318
 151500     .1515   -292298.6 400849.972  560.20058 400289.772 -693148.58 292858.805 18.6733527
 152000      .152  -319722.92 388794.534 627.565642 388166.968 -708517.45 320350.481 20.9188547
 152500     .1525  -342292.64  370492.53 708.499359 369784.031 -712785.17 343001.142 23.6166453
 153000      .153  -360733.88 347247.597 784.030465 346463.566 -707981.48 361517.912 26.1343488
 153500     .1535  -373935.06 319107.848 821.316906 318286.531 -693042.91 374756.377 27.3772302
 154000      .154   -379502.5 284937.055  821.66056 284115.394 -664439.55 380324.159 27.3886853
 154500     .1545  -376581.79 244615.596 822.851375 243792.745 -621197.39 377404.642 27.4283792
 155000      .155  -366282.92 199444.358 844.336917 198600.022 -565727.28 367127.258 28.1445639
 155500     .1555  -350108.83 151135.585 879.011192 150256.574 -501244.42 350987.841 29.3003731
 156000      .156  -328835.23 100806.686 918.997393 99887.6883 -429641.91 329754.227 30.6332464
 156500     .1565  -303681.93 50155.7148  943.70553 49212.0093 -353837.65 304625.636  31.456851
 157000      .157  -273877.16 -693.32072  926.96087 -1620.2816 -273183.84 274804.125 30.8986957
 157500     .1575  -238074.07 -52288.847 879.732861 -53168.579 -185785.22   238953.8 29.3244287
 158000      .158  -196558.14 -104178.48 838.624165  -105017.1 -92379.662 197396.764 27.9541388
 158500     .1585   -151298.1 -154669.14 815.237122 -155484.38 3371.03844 152113.337 27.1745707
 159000      .159  -104073.76 -202207.61 802.320292 -203009.93 98133.8459 104876.083 26.7440097
 159500     .1595  -56243.351 -245611.42 791.606052 -246403.03 189368.073 57034.9569 26.3868684
 160000       .16    -9108.04 -283558.17 761.723195 -284319.89 274450.127 9869.76322 25.3907732
 160500     .1605   37982.738 -316397.23 694.484975 -317091.71 354379.964 -37288.253 23.1494992
 161000      .161  85736.1947  -344748.2 608.742229 -345356.94 430484.396 -85127.452 20.2914076
 161500     .1615  133300.377 -368295.67 537.733208 -368833.41 501596.051 -132762.64 17.9244403
 162000      .162  178537.122 -385731.16 486.685421 -386217.85 564268.283 -178050.44 16.2228474
 162500     .1625  219971.324 -396287.43 448.415085 -396735.84 616258.752 -219522.91 14.9471695
 163000      .163  256316.855 -399333.64 413.838873 -399747.48 655650.497 -255903.02 13.7946291
 163500     .1635  286883.158 -394542.81  361.83677 -394904.65 681425.971 -286521.32 12.0612257
 164000      .164  312715.462 -383112.47 282.229279  -383394.7 695827.932 -312433.23 9.40764263
 164500     .1645  334537.285 -366169.11 198.802539 -366367.91 700706.392 -334338.48 6.62675131
 165000      .165  351636.823 -343920.69 138.952753 -344059.65 695557.517 -351497.87 4.63175844
 165500     .1655   362453.33 -315839.88 102.652553 -315942.53  678293.21 -362350.68 3.42175177
 166000      .166  366329.337 -282088.65 82.3016985 -282170.95 648417.985 -366247.04 2.74338995
 166500     .1665  362654.621 -242752.17 67.2090137 -242819.38 605406.788 -362587.41 2.24030046
 167000      .167  351809.078 -198530.37 37.1546141 -198567.53 550339.452 -351771.92 1.23848714
 167500     .1675  335524.366 -151294.99 -11.191514 -151283.79 486819.352 -335535.56 -.37305048
 168000      .168  314901.012 -102539.85 -52.090947 -102487.75 417440.857  -314953.1 -1.7363649
 168500     .1685  289697.688 -52786.587 -65.289155 -52721.297 342484.274 -289762.98 -2.1763052
 169000      .169  259224.273 -2058.8879 -54.876025 -2004.0119 261283.161 -259279.15 -1.8292008
 169500     .1695  223658.932  49019.312 -29.285023  49048.597  174639.62 -223688.22 -.97616745
  % % % % % %   Suspended simulation;  plot data space exhausted;  SPY SPACE is required.   LIMBUF =  340000.
  % % % % % %   Suspended simulation;  plot data space exhausted;  SPY SPACE is required.   LIMBUF =  340000.
  +++  Time-sharing disabled.   Send  user-keyed interrupt to silence alarm.
   Current values.  INDBUF  INDBEG  LIMBUF  MFLUSH  NUMDCD  KCARD1  KCARD2
                    339994      50  340000    1003      46       1      50
Plot timespan now in memory (in sec) = 1.27476007E-01   1.69969000E-01
   ++++  Begin plot-data copy from memory to disk.   MFLUSH, INDBUF, N4, Tbeg,  Tend = 1004  339994       1  -1.00000E+00
1.00000E+19
 170000       .17  183162.632 100044.985 -1.1551408 100046.141 83117.6467 -183163.79 -.03850469
 170500     .1705  139052.626 149854.054 11.2207264 149842.833 -10801.428 -139041.41 .374024213
 171000      .171  93495.5199  196562.29 10.3639227 196551.926 -103066.77 -93485.156 .345464091
 171500     .1715  47758.7861 238915.039 21.7105427 238893.328 -191156.25 -47737.076 .723684758
 172000      .172  1826.99547 276688.321 58.2586386 276630.062 -274861.33 -1768.7368 1.94195462
 172500     .1725  -44441.175 309926.265 113.037013 309813.228 -354367.44 44554.2123 3.76790044
 173000      .173  -90552.504 338284.566 176.877667 338107.688 -428837.07 90729.3817 5.89592224
 173500     .1735  -136019.03 361659.742 235.705038 361424.037 -497678.77 136254.734 7.85683461
 174000      .174  -179230.26 379154.555 274.416089 378880.139 -558384.82 179504.676 9.14720298
 174500     .1745  -218246.14 389567.472 300.564353 389266.908 -607813.61 218546.702 10.0188118
 175000      .175  -252224.62 392474.842 337.725642 392137.117 -644699.46 252562.344 11.2575214
 175500     .1755  -281517.64  388450.21 392.688807 388057.522 -669967.85 281910.329 13.0896269
 176000      .176  -306348.19  378091.42 457.083347 377634.337 -684439.61 306805.278 15.2361116
 176500     .1765  -326585.47 361804.875  521.64715 361283.228 -688390.34 327107.115 17.3882383
 177000      .177  -342002.95 340107.235 572.068838 339535.166 -682110.18 342575.018 19.0689613
 177500     .1775  -351391.38  312732.69 597.709786 312134.981 -664124.07 351989.086 19.9236595
 178000      .178  -353636.13 279396.002 610.592974 278785.409 -633032.14 354246.727 20.3530991
 178500     .1785  -348801.17 240610.686 631.680959 239979.005 -589411.86 349432.852  21.056032
 179000      .179  -337949.68 197710.706 663.292406 197047.414 -535660.38 338612.968 22.1097469
 179500     .1795  -321803.96 151805.794 697.005134 151108.789 -473609.75  322500.96 23.2335045
 180000       .18  -300923.13 103913.358 724.060578 103189.297 -404836.49 301647.189 24.1353526
 180500     .1805  -275583.87 54917.5184 731.258579 54186.2598 -330501.39 276315.132  24.375286
 181000      .181  -245238.83 4948.19982 713.217759 4234.98206 -250187.03 245952.051 23.7739253
 181500     .1815  -209699.34 -45740.142 685.571363 -46425.713  -163959.2  210384.91 22.8523788
 182000      .182  -169900.36 -96169.313 666.109667 -96835.423 -73731.047  170566.47 22.2036556
 182500     .1825   -127456.8 -144827.87 654.153056 -145482.03  17371.077 128110.949 21.8051019
 183000      .183  -83472.567 -190628.76 641.956865 -191270.72 107156.193 84114.5244 21.3985622
 183500     .1835  -38935.915 -232570.49 621.447961 -233191.94 193634.572 39557.3633  20.714932
 184000      .184  5672.40483 -270043.47 581.450496 -270624.92 275715.878 -5090.9543 19.3816832
 184500     .1845  50546.0604 -303121.55 521.722631 -303643.27 353667.607 -50024.338 17.3907544
 185000      .185  95398.9795 -331685.54 460.038201 -332145.58  427084.52 -94938.941 15.3346067
 185500     .1855  138971.872 -354990.62 410.431725 -355401.05 493962.487 -138561.44 13.6810575
 186000      .186  179707.423 -372060.12 370.090085 -372430.21 551767.544 -179337.33 12.3363362
 186500     .1865   216654.95 -382425.75 331.969414 -382757.72 599080.698 -216322.98 11.0656471
 187000      .187  249033.212 -385727.36 288.357925 -386015.72 634760.573 -248744.85 9.61193083
 187500     .1875  276745.764 -382162.74 230.327929 -382393.07 658908.504 -276515.44 7.67759763
 188000      .188  300202.269 -372459.96 161.834158 -372621.79 672662.226 -300040.44 5.39447194
 188500     .1885  319278.303 -357077.47 100.890973 -357178.37 676355.778 -319177.41 3.36303243
 189000      .189  333047.916 -335905.61 57.2066798 -335962.81 668953.524 -332990.71 1.90688933
 189500     .1895  340624.771 -308824.29 26.1086436  -308850.4 649449.062 -340598.66 .870288119
 190000       .19  341712.323 -276159.86 .756637291 -276160.61 617872.179 -341711.57 .025221243
 190500     .1905  336252.192 -238342.99 -26.724042 -238316.27 574595.186 -336278.92  -.8908014
 191000      .191  324921.858 -196379.92 -63.200726 -196316.72 521301.781 -324985.06 -2.1066909
 191500     .1915  308682.228 -151569.28 -101.81845 -151467.46 460251.511 -308784.05 -3.3939485
 192000      .192  287897.073 -104817.97 -126.14798 -104691.82 392715.042 -288023.22 -4.2049327
 192500     .1925  262264.301 -56474.033 -131.03274 -56343.001 318738.335 -262395.33 -4.3677579
 193000      .193   231731.74 -6983.3905 -122.81801 -6860.5725 238715.131 -231854.56 -4.0939338
 193500     .1935  196707.811 42928.8723 -108.57732 43037.4496 153778.939 -196816.39  -3.619244
 194000      .194  157862.278 92465.9031 -96.520156 92562.4233 65396.3748  -157958.8 -3.2173385
 194500     .1945  116505.355 140359.708 -91.561256  140451.27 -23854.353 -116596.92 -3.0520419
 195000      .195  73959.2167 185316.256 -85.038847 185401.295 -111357.04 -74044.255 -2.8346282
 195500     .1955  30856.7014 226568.367 -63.265416 226631.632 -195711.67 -30919.967 -2.1088472
 196000      .196   -12737.31 263894.953 -25.171194 263920.124 -276632.26 12712.1384 -.83903979
 196500     .1965  -56434.806  296943.69 21.7609706 296921.929  -353378.5 56456.5671 .725365685
 197000      .197  -99571.457 325260.436 70.2421095 325190.194 -424831.89 99641.6995 2.34140365
 197500     .1975  -141241.29 348334.616 112.165772  348222.45  -489575.9 141353.454 3.73885907
 198000      .198  -180087.21 365326.909 144.810677 365182.099 -545414.12 180232.017 4.82702257
 198500     .1985   -215002.4 375581.292 178.031807  375403.26 -590583.69 215180.431 5.93439356
 199000      .199  -245647.68 379046.149 222.503368 378823.646 -624693.83 245870.188 7.41677895
 199500     .1995  -272144.62 376132.207 276.309608 375855.898 -648276.83 272420.933 9.21032028
 200000       0.2  -294297.21 367092.218 331.736604 366760.481 -661389.43 294628.948 11.0578868
 200500     .2005  -311783.35 352172.143 381.773689  351790.37 -663955.49  312165.12 12.7257896
 201000      .201  -324053.83 331513.186 419.320444 331093.865 -655567.02 324473.151 13.9773481
 201500     .2015  -330301.61 305028.529  444.31865 304584.211 -635330.14 330745.933 14.8106217
 202000      .202  -330148.58 272909.268 467.532327 272441.736 -603057.85 330616.117 15.5844109
 202500     .2025  -323983.68 235922.348 496.967899  235425.38 -559906.03 324480.645 16.5655966
 203000      .203  -312490.78 195116.762 529.050065 194587.712 -507607.55 313019.834 17.6350022
 203500     .2035  -296045.65 151324.459 556.764525 150767.695 -447370.11 296602.419 18.5588175
 204000      .204  -274947.34 105351.273 573.990443 104777.283 -380298.62 275521.335 19.1330148
 204500     .2045  -249236.83 57788.2726 575.495254 57212.7773  -307025.1 249812.321 19.1831751
 205000      .205  -218827.31  9035.3918 564.136967 8471.25484  -227862.7 219391.445 18.8045656
 205500     .2055  -184118.98 -40239.264 551.218236 -40790.482 -143879.72 184670.202 18.3739412
 206000      .206  -146169.77 -88912.133 542.511842 -89454.645  -57257.64 146712.285 18.0837281
 206500     .2065  -106105.71  -135810.5  533.79013 -136344.29 29704.7909 106639.497 17.7930043
 207000      .207   -64722.81 -180050.54 519.217285 -180569.76 115327.735 65242.0272 17.3072428
 207500     .2075  -22687.677 -220864.06  493.83896  -221357.9 198176.382 23181.5159 16.4612987
 208000      .208  19658.2746 -257810.49 454.634398 -258265.13 277468.767  -19203.64 15.1544799
 208500     .2085  62038.6733 -290625.72 407.044045 -291032.76 352664.394 -61631.629 13.5681348
 209000      .209  103724.853 -318822.25 362.160066 -319184.41 422547.102 -103362.69 12.0720022
 209500     .2095  143515.461 -341601.71 323.655849 -341925.36 485117.168 -143191.81 10.7885283
 210000       .21   180372.68  -358314.1 287.041252 -358601.14 538686.777 -180085.64 9.56804174
 210500     .2105  213618.987 -368626.82  247.49703 -368874.31 582245.803 -213371.49 8.24990099
 211000      .211  242798.962 -372399.45 201.022203 -372600.47  615198.41 -242597.94 6.70074011
 211500     .2115  267829.214 -369859.17 146.526565  -370005.7 637688.387 -267682.69 4.88421882
 212000      .212  288646.339 -361354.46 91.1055992 -361445.56 650000.796 -288555.23 3.03685331
  % % % % % %   Suspended simulation;  plot data space exhausted;  SPY SPACE is required.   LIMBUF =  340000.
  % % % % % %   Suspended simulation;  plot data space exhausted;  SPY SPACE is required.   LIMBUF =  340000.
  +++  Time-sharing disabled.   Send  user-keyed interrupt to silence alarm.
   Current values.  INDBUF  INDBEG  LIMBUF  MFLUSH  NUMDCD  KCARD1  KCARD2
                    339994      50  340000    1004      46       1      50
Plot timespan now in memory (in sec) = 1.69967994E-01   2.12461000E-01
   ++++  Begin plot-data copy from memory to disk.   MFLUSH, INDBUF, N4, Tbeg,  Tend = 1005  339994       1  -1.00000E+00
1.00000E+19
 212500     .2125   304790.35 -347014.76 44.5890316 -347059.35 651805.109 -304745.76 1.48630105
 213000      .213  315515.614 -326757.31 8.39306812  -326765.7 642272.922 -315507.22 .279768937
 213500     .2135  320397.117 -300737.84 -22.330737  -300715.5 621134.952 -320419.45 -.74435789
 214000      .214  319358.862 -269374.91 -51.949952 -269322.96 588733.771 -319410.81 -1.7316651
 214500     .2145  312600.187 -233283.56 -83.983678 -233199.57 545883.744 -312684.17 -2.7994559
 215000      .215  300660.127 -193377.42 -118.19831 -193259.23 494037.551 -300778.32 -3.9399438
 215500     .2155  284015.499 -150569.15 -146.98186 -150422.17 434584.652 -284162.48 -4.8993955
 216000      .216  262761.733 -105490.86 -162.70719 -105328.16 368252.596 -262924.44  -5.423573
 216500     .2165   236836.24 -58593.952 -166.31718 -58427.635 295430.193 -237002.56 -5.5439061
 217000      .217  206533.451 -10544.374 -163.16919 -10381.204 217077.825 -206696.62 -5.4389729
 217500     .2175  172418.342 37849.5857 -157.65584 38007.2416 134568.756   -172576. -5.2551947
 218000      .218  135304.822 85646.2317 -153.10639 85799.3381 49658.5905 -135457.93 -5.1035463
 218500     .2185  96222.7022 131750.057 -148.42059 131898.477 -35527.354 -96371.123 -4.9473531
 219000      .219  56009.4424 175221.166  -136.3163 175357.482 -119211.72 -56145.759 -4.5438766
 219500     .2195  15089.1349 215485.892 -111.75641 215597.648 -200396.76 -15200.891 -3.7252136
 220000       .22  -26211.612 252147.615 -77.724866  252225.34 -278359.23 26133.8872 -2.5908289
 220500     .2205  -67272.835 284672.817 -39.905545 284712.723 -351945.65 67232.9295 -1.3301848
 221000      .221    -107322. 312504.094 -2.7243104 312506.819 -419826.09 107319.272 -.09081035
 221500     .2215  -145420.21 335022.006 30.8550225 334991.151 -480442.22 145451.069 1.02850075
 222000      .222  -180579.63 351594.166 62.7651652   351531.4  -532173.8 180642.396 2.09217217
 222500     .2225  -212138.79 361859.276 99.6605943 361759.616 -573998.07  212238.45 3.32201981
 223000      .223  -239879.57 365858.115 144.285099  365713.83 -605737.68 240023.853  4.8095033
 223500     .2235  -263643.99   363769.6 192.414438 363577.185 -627413.59 263836.406 6.41381459
 224000      .224  -283072.32 355686.442 238.604946 355447.837 -638758.76 283310.927  7.9534982
 224500     .2245  -297745.84 341723.249 278.854147 341444.395 -639469.08  298024.69 9.29513823
 225000      .225   -307155.7 321950.615 311.116627 321639.499 -629106.31 307466.813 10.3705542
 225500     .2255  -310878.23  296493.99 338.428393 296155.561 -607372.22 311216.654 11.2809464
 226000      .226  -308889.99  265773.31 366.923414 265406.387  -574663.3 309256.918 12.2307805
 226500     .2265  -301576.69 230549.592 397.758962 230151.833 -532126.28 301974.452 13.2586321
 227000      .227  -289316.98 191616.223 426.443808 191189.779  -480933.2 289743.424 14.2147936
 227500     .2275  -272335.82 149662.318 448.418179   149213.9 -421998.14  272784.24 14.9472726
 228000      .228  -250817.27 105351.691 460.663698 104891.027 -356168.96 251277.938 15.3554566
 228500     .2285  -224876.13 59255.6677 462.585942 58793.0818 -284131.79 225338.712 15.4195314
 229000      .229  -194764.57 11985.2853  458.50419 11526.7811 -206749.85 195223.071  15.283473
 229500     .2295  -161115.81 -35615.635 454.143171 -36069.779 -125500.17 161569.951 15.1381057
 230000       .23  -124851.24 -82501.845 449.708469 -82951.553 -42349.391 125300.945 14.9902823
 230500     .2305  -86773.634 -127739.04  441.12824 -128180.17 40965.4077 87214.7618 14.7042747
 231000      .231  -47515.046 -170560.05 425.036583 -170985.08 123045.002  47940.083 14.1678861
 231500     .2315  -7611.5796 -210317.42 399.637153 -210717.06 202705.841 8011.21672 13.3212384
 232000      .232  32501.0308 -246524.77 365.897009 -246890.67 279025.803 -32135.134  12.196567
 232500     .2325   72268.133 -278701.76 329.158949 -279030.92 350969.892 -71938.974  10.971965
 233000      .233   110841.24 -306220.22 294.529077 -306514.75 417061.463 -110546.71 9.81763591
 233500     .2335  147253.183 -328397.73 261.486199 -328659.21 475650.911  -146991.7 8.71620663
 234000      .234  180773.076 -344773.14 226.511655 -344999.66 525546.221 -180546.56 7.55038851
 234500     .2345  210885.366 -355095.11 187.225163 -355282.34  565980.48 -210698.14 6.24083878
 235000      .235    237243.1 -359295.95 142.802749 -359438.76 596539.055  -237100.3 4.76009162
 235500     .2355  259631.582 -357489.03 95.3606162 -357584.39 617120.614 -259536.22 3.17868721
 236000      .236   277747.98  -349799.6  50.546905 -349850.14 627547.577 -277697.43 1.68489683
 236500     .2365  291086.614 -336244.21 12.3268696 -336256.53 627330.819 -291074.29 .410895652
 237000      .237  299168.672 -316868.19 -20.700489 -316847.49 616036.862 -299189.37  -.6900163
 237500     .2375  301814.268 -291957.55 -51.803005 -291905.75 593771.819 -301866.07 -1.7267668
 238000      .238  299070.333 -261979.98 -82.914387 -261897.07 561050.318 -299153.25 -2.7638129
 238500     .2385  291175.887 -227568.77 -114.41185 -227454.36 518744.657  -291290.3 -3.8137284
 239000      .239  278479.319 -189474.06 -143.69728 -189330.37 467953.382 -278623.02 -4.7899092
 239500     .2395  261226.737 -148391.68 -165.66177 -148226.02 409618.415  -261392.4 -5.5220589
 240000       .24  239502.105 -104878.42 -177.99084 -104700.43 344380.522  -239680.1  -5.933028
 240500     .2405  213483.762  -59518.62 -183.15464 -59335.465 273002.382 -213666.92 -6.1051548
 241000      .241  183622.466 -13065.659 -184.51178 -12881.147 196688.126 -183806.98 -6.1503928
 241500     .2415  150542.073 33637.9635  -184.0022 33821.9657 116904.109 -150726.07 -6.1334067
 242000      .242  115005.075 79672.2445 -181.94749  79854.192 35332.8306 -115187.02 -6.0649163
 242500     .2425  77792.3279 124121.346 -175.76534 124297.112 -46329.018 -77968.093 -5.8588446
 243000      .243  39512.8057 166230.649  -161.4212 166392.071 -126717.84 -39674.227 -5.3807066
 243500     .2435  599.946383 205445.607 -138.36958 205583.977 -204845.66 -738.31596 -4.6123192
 244000      .244  -38426.943 241226.967 -110.01479 241336.982 -279653.91  38316.928 -3.6671598
 244500     .2445  -76869.307 272969.497 -79.818959 273049.315  -349838.8 76789.4884  -2.660632
 245000      .245  -113951.48 300076.714 -49.765743  300126.48  -414028.2 113901.717 -1.6588581
 245500     .2455  -148858.55 321968.642 -20.092853 321988.735 -470827.19 148838.456 -.66976176
 246000      .246  -180874.96 338176.602  11.695816 338164.906 -519051.56 180886.657 .389860535
 246500     .2465  -209538.64 348470.768 48.5526273 348422.215 -558009.41 209587.195 1.61842091
 247000      .247   -234584.4  352844.28 89.6574291 352754.622 -587428.68 234674.057 2.98858097
 247500     .2475  -255693.54 351321.361 131.218394 351190.142  -607014.9 255824.761 4.37394647
 248000      .248  -272463.45 343919.406 170.050636 343749.356 -616382.85 272633.496 5.66835453
 248500     .2485  -284493.31 330701.897 204.502294 330497.395 -615195.21 284697.817 6.81674313
 249000      .249  -291424.48 311783.667 234.809883 311548.857 -603208.15 291659.294  7.8269961
 249500     .2495   -293077.1   287423.2 263.647468 287159.552  -580500.3 293340.745 8.78824893
 250000       .25  -289556.67 258112.873 293.255107 257819.618 -547669.54 289849.921 9.77517023
 250500     .2505   -281138.7 224509.377 322.145776 224187.231 -505648.07 281460.842 10.7381925
 251000      .251  -268043.03 187250.296 346.843787 186903.452 -455293.32 268389.871 11.5614596
 251500     .2515   -250443.8 146946.135 364.944772 146581.191 -397389.94 250808.747 12.1648257
 252000      .252  -228531.08 104209.608 375.597876  103834.01 -332740.69 228906.682 12.5199292
 252500     .2525  -202553.97 59664.7737 379.919098 59284.8546 -262218.75 202933.892 12.6639699
 253000      .253  -172942.75 14031.7545 381.006668 13650.7478  -186974.5 173323.753 12.7002223
 253500     .2535  -140365.09  -31818.03 380.750105  -32198.78 -108547.06 140745.842 12.6916702
 254000      .254  -105564.77 -76971.192 377.575148 -77348.767 -28593.574 105942.341 12.5858383
 254500     .2545  -69174.927 -120628.03 368.784413 -120996.82 51453.1049 69543.7117 12.2928138
  % % % % % %   Suspended simulation;  plot data space exhausted;  SPY SPACE is required.   LIMBUF =  340000.
  % % % % % %   Suspended simulation;  plot data space exhausted;  SPY SPACE is required.   LIMBUF =  340000.
  +++  Time-sharing disabled.   Send  user-keyed interrupt to silence alarm.
   Current values.  INDBUF  INDBEG  LIMBUF  MFLUSH  NUMDCD  KCARD1  KCARD2
                    339994      50  340000    1005      46       1      50
Plot timespan now in memory (in sec) = 2.12459996E-01   2.54953000E-01
   ++++  Begin plot-data copy from memory to disk.   MFLUSH, INDBUF, N4, Tbeg,  Tend = 1006  339994       1  -1.00000E+00
1.00000E+19
 255000      .255  -31753.379 -162086.87    352.999 -162439.87 130333.494 32106.3775 11.7666333
 255500     .2555  6174.83272 -200727.72 330.349114 -201058.07 206902.549 -5844.4836 11.0116371
 256000      .256  44066.9546 -235989.47 302.887598 -236292.36 280056.427 -43764.067 10.0962533
 256500     .2565  81257.1262 -267289.35 274.039963 -267563.39 348546.481 -80983.086 9.13466542
 257000      .257  116944.168 -293994.08  245.37938 -294239.46 410938.252 -116698.79 8.17931267
 257500     .2575  150375.993 -315547.41 215.408987 -315762.82 465923.407 -150160.58 7.18029956
 258000      .258  180984.061 -331581.42 182.194673 -331763.62 512565.485 -180801.87 6.07315577
 258500     .2585   208329.95 -341879.87 145.180963 -342025.06 550209.824 -208184.77 4.83936542
 259000      .259  232068.861 -346360.65 105.217685 -346465.87 578429.516 -231963.64 3.50725616
 259500     .2595  251885.986 -345032.53 64.9046518 -345097.44 596918.521 -251821.08 2.16348839
 260000       .26   267404.17 -337914.51 27.5141039 -337942.03 605318.682 -267376.66 .917136797
 260500     .2605  278205.317  -325026.2 -6.0052885 -325020.19 603231.515 -278211.32 -.20017628
 261000      .261  284012.656   -306514. -37.291144  -306476.7 590526.651 -284049.95 -1.2430381
 261500     .2615  284766.368 -282711.87  -67.90356 -282643.97 567478.242 -284834.27  -2.263452
 262000      .262  280556.115 -254089.13 -98.075374 -253991.05 534645.242 -280654.19 -3.2691791
 262500     .2625  271579.054 -221223.54 -126.75394 -221096.79 492802.597 -271705.81 -4.2251313
 263000      .263   258061.63 -184739.68  -151.3947 -184588.28 442801.308 -258213.02 -5.0464899
 263500     .2635  240178.515 -145230.54 -169.46855 -145061.07 385409.051 -240347.98 -5.6489518
 264000      .264  218099.666 -103266.63 -181.01693 -103085.62 321366.301 -218280.68 -6.0338975
 264500     .2645  192152.018 -59510.377 -188.10406 -59322.273 251662.395 -192340.12 -6.2701353
 265000      .265  162840.939 -14733.835 -192.32352 -14541.511 177574.774 -163033.26 -6.4107839
 265500     .2655  130775.516 30238.1808 -194.01892 30432.1997 100537.335 -130969.54 -6.4672975
 266000      .266  96617.7377 74562.2577 -192.33587 74754.5936   22055.48 -96810.074 -6.4111958
 266500     .2665  60996.3086 117445.476 -185.21607 117630.692 -56449.168 -61181.525 -6.1738691
 267000      .267  24441.6279 158211.435 -171.19697 158382.632 -133769.81 -24612.825 -5.7065657
 267500     .2675  -12543.967 196267.321 -151.38431 196418.705 -208811.29 12392.5824 -5.0461437
 268000      .268  -49352.411 231002.647 -128.28162 231130.928 -280355.06 49224.1291  -4.276054
 268500     .2685  -85287.343 261797.657 -103.60738 261901.265   -347085. 85183.7355 -3.4535795
 269000      .269   -119635.6 288071.915 -77.881533 288149.797 -407707.52 119557.721 -2.5960511
 269500     .2695  -151721.58 309317.566 -50.467047 309368.033 -461039.15 151671.113 -1.6822349
 270000       .27  -180988.93 325161.751 -19.812126 325181.563 -506150.68  180969.12 -.66040419
 270500     .2705  -207040.05 335408.599 14.6122153 335393.987 -542448.65 207054.664 .487073844
 271000      .271  -229542.38 339978.228 50.9874709  339927.24  -569520.6 229593.364 1.69958236
 271500     .2715  -248121.45 338816.804 86.7320776 338730.072 -586938.25 248208.179 2.89106925
 272000      .272  -262397.92 331914.478 120.290403 331794.188  -594312.4 262518.209 4.00968011
 272500     .2725  -272046.08 319337.499 151.277549 319186.221 -591383.58 272197.358 5.04258495
 273000      .273   -276843.5 301254.238 180.436841 301073.801 -578097.74 277023.942 6.01456137
 273500     .2735   -276736.7 277982.193  209.12641 277773.067 -554718.89 276945.822 6.97088033
 274000      .274  -271847.39 250000.342 237.395732 249762.946 -521847.74 272084.789 7.91319107
 274500     .2745  -262358.48 217863.825 263.305447  217600.52 -480222.31 262621.787 8.77684823
 275000      .275  -248431.23 182127.175 284.719781 181842.456 -430558.41 248715.951 9.49065936
 275500     .2755  -230247.16  143363.28 300.670543 143062.609 -373610.44 230547.827 10.0223514
 276000      .276  -208050.24 102180.761 311.316223 101869.445   -310231. 208361.556 10.3772074
 276500     .2765  -182187.81 59243.8091 317.868468 58925.9407 -241431.62 182505.683 10.5956156
 277000      .277  -153155.65 15304.7181 321.816864 14982.9012 -168460.37 153477.469 10.7272288
 277500     .2775  -121571.47 -28809.153 323.156944  -29132.31 -92762.313 121894.623 10.7718981
 278000      .278  -88050.895 -72291.641 320.298499  -72611.94 -15759.254 88371.1939 10.6766166
 278500     .2785  -53149.761  -114414.3 311.885914 -114726.19 61264.5424 53461.6469 10.3961971
 279000      .279  -17405.512 -154505.22 297.750955 -154802.97 137099.708 17703.2631 9.92503182
 279500     .2795  18631.6306 -191936.35 278.755236 -192215.11 210567.982 -18352.875  9.2918412
 280000       .28  54363.6751 -226102.43 256.651232 -226359.08 280466.105 -54107.024 8.55504105
 280500     .2805   89116.488 -256395.08 233.090469 -256628.17 345511.566 -88883.397 7.76968232
 281000      .281  122190.067 -282230.38 208.117296  -282438.5 404420.445 -121981.95 6.93724321
 281500     .2815   152976.25 -303138.56 180.575117 -303319.14 456114.813 -152795.67 6.01917057
 282000      .282  180987.491  -318792.5 149.815892 -318942.32 499779.993 -180837.68 4.99386305
 282500     .2825   205813.38 -328978.92 116.290148 -329095.21 534792.302 -205697.09 3.87633826
 283000      .283  227090.735 -333579.52 81.3283132 -333660.85 560670.256 -227009.41 2.71094377
 283500     .2835  244467.876 -332541.28 46.9089132 -332588.19 577009.154 -244420.97 1.56363044
 284000      .284  257585.564 -325850.21 14.5252841 -325864.73 583435.772 -257571.04 .484176137
 284500     .2845  266138.531 -313563.55 -15.970684 -313547.58 579702.085  -266154.5 -.53235612
 285000      .285   269971.58 -295880.02  -45.57475 -295834.45   565851.6 -270017.15 -1.5191583
 285500     .2855  269077.325 -273138.61  -74.62465 -273063.99 542215.939 -269151.95 -2.4874883
 286000      .286  263547.076 -245780.52 -102.50393 -245678.01 509327.594 -263649.58 -3.4167976
 286500     .2865  253534.852 -214319.77 -127.88201 -214191.89  467854.62 -253662.73 -4.2627336
 287000      .287  239217.047 -179304.56 -149.05391 -179155.51 418521.611  -239366.1 -4.9684636
 287500     .2875  220778.562 -141290.94 -165.12374 -141125.81 362069.501 -220943.69 -5.5041246
 288000      .288  198476.524 -100876.62 -176.76353 -100699.86 299353.147 -198653.29 -5.8921177
 288500     .2885  172707.409 -58749.282 -185.15187  -58564.13 231456.691 -172892.56 -6.1717288
 289000      .289  143978.461 -15663.652 -190.72457 -15472.928 159642.114 -144169.19 -6.3574855
 289500     .2895  112854.213 27600.3959 -193.09861 27793.4945 85253.8175 -113047.31 -6.4366204
 290000       .29  79914.7307 70272.4175 -191.31296 70463.7305 9642.31325 -80106.044 -6.3770985
 290500     .2905  45713.8063 111631.314 -184.27908 111815.593 -65917.508 -45898.085 -6.1426359
 291000      .291  10773.0217  151023.77 -171.92385 151195.694 -140250.75 -10944.946  -5.730795
 291500     .2915  -24354.548 187824.868 -155.54427 187980.413 -212179.42 24199.0037  -5.184809
 292000      .292  -59043.422  221405.38 -136.60021  221541.98  -280448.8 58906.8219 -4.5533403
 292500     .2925  -92638.872 251162.208 -115.74337 251277.951 -343801.08 92523.1283 -3.8581123
 293000      .293  -124507.78 276554.257 -92.895405 276647.153 -401062.04 124414.883 -3.0965135
 293500     .2935   -154078.9 297132.167  -67.48846 297199.655 -451211.06 154011.409 -2.2496153
 294000      .294  -180877.47 312568.584 -39.018849 312607.603 -493446.05  180838.45 -1.3006283
 294500     .2945  -204516.07 322659.049 -8.0722479 322667.121 -527175.12 204507.998 -.26907493
 295000      .295  -224628.68 327272.438 23.6937727 327248.744 -551901.12 224652.371 .789792423
 295500     .2955  -240847.23 326325.288 54.7879714   326270.5 -567172.52 240902.018 1.82626571
 296000      .296  -252845.73 319807.508 84.5785404  319722.93 -572653.24 252930.312 2.81928468
 296500     .2965  -260380.42 307805.024 113.112451 307691.912 -568185.45 260493.537 3.77041504
 297000      .297  -263320.21 290517.692 140.861873  290376.83  -553837.9 263461.069 4.69539577
  % % % % % %   Suspended simulation;  plot data space exhausted;  SPY SPACE is required.   LIMBUF =  340000.
  % % % % % %   Suspended simulation;  plot data space exhausted;  SPY SPACE is required.   LIMBUF =  340000.
  +++  Time-sharing disabled.   Send  user-keyed interrupt to silence alarm.
   Current values.  INDBUF  INDBEG  LIMBUF  MFLUSH  NUMDCD  KCARD1  KCARD2
                    339994      50  340000    1006      46       1      50
Plot timespan now in memory (in sec) = 2.54952013E-01   2.97445000E-01
   ++++  Begin plot-data copy from memory to disk.   MFLUSH, INDBUF, N4, Tbeg,  Tend = 1007  339994       1  -1.00000E+00
1.00000E+19
 297500     .2975  -261665.88 268273.597 168.085366 268105.512 -529939.47 261833.963 5.60284554
 298000      .298  -255520.78 241508.747 193.977577  241314.77 -497029.53 255714.761 6.46591923
 298500     .2985  -245021.88 210708.578  216.99765  210491.58 -455730.45 245238.874 7.23325501
 299000      .299   -230326.2 176386.107 236.040419 176150.067 -406712.31  230562.24 7.86801397
 299500     .2995   -211647.4  139099.06 250.869525 138848.191 -350746.46 211898.272 8.36231751
 300000       0.3  -189282.08 99460.2727 261.872365 99198.4004 -288742.35 189543.948 8.72907884
 300500     .3005  -163627.37 58145.1154 269.775515 57875.3398 -221772.48 163897.142 8.99251717
 301000      .301  -135182.91 15892.2066 274.950457 15617.2561 -151075.12 135457.862 9.16501524
 301500     .3015  -104503.59 -26532.273 276.775654 -26809.049 -77971.321  104780.37 9.22585514
 302000      .302   -72132.56 -68392.946 274.199238 -68667.145 -3739.6141 72406.7591 9.13997461
 302500     .3025  -38596.094  -108999.2 266.771067 -109265.97 70403.1083 38862.8649 8.89236889
 303000      .303  -4432.6002 -147691.53 254.849366 -147946.38 143258.926 4687.44952 8.49497885
 303500     .3035  29790.6472 -183834.93 239.319849 -184074.25  213625.58 -29551.327  7.9773283
 304000      .304  63468.3734 -216813.83 221.267984  -217035.1 280282.206 -63247.105 7.37559947
 304500     .3045  95967.2208  -246036.2 201.270414 -246237.47  342003.42  -95765.95  6.7090138
 305000      .305  126681.259 -270972.91 178.989925  -271151.9 397654.167 -126502.27 5.96633082
 305500     .3055  155087.278 -291203.66 153.893529 -291357.55 446290.936 -154933.38  5.1297843
 306000      .306  180737.939 -306416.25 126.103545 -306542.35 487154.185 -180611.84  4.2034515
 306500     .3065  203234.221 -316388.09 96.4234454 -316484.52 519622.314  -203137.8 3.21411485
 307000      .307  222209.892 -320974.14 66.0434764 -321040.18 543184.031 -222143.85 2.20144921
 307500     .3075  237323.015 -320095.68 36.1691459 -320131.85 557418.699 -237286.85  1.2056382
 308000      .308  248269.391 -313741.58 7.34697878 -313748.93 562010.974 -248262.04 .244899293
 308500     .3085  254834.767 -302001.26 -20.702837 -301980.56 556836.029 -254855.47 -.69009457
 309000      .309  256929.631 -285090.35 -48.285724 -285042.06  542019.98 -256977.92 -1.6095241
 309500     .3095  254567.108 -263332.76 -75.076787 -263257.69 517899.871 -254642.18 -2.5025596
 310000       .31  247831.172 -237133.76 -100.22466 -237033.53 484964.929  -247931.4 -3.3408219
 310500     .3105  236856.286 -206959.01 -122.64322 -206836.37 443815.297 -236978.93 -4.0881073
 311000      .311    221814.7 -173315.86 -141.41656 -173174.44 395130.557 -221956.12 -4.7138855
 311500     .3115  202928.544 -136750.64 -156.39107 -136594.25 339679.184 -203084.93 -5.2130356
 312000      .312  180511.914 -97873.168 -168.11707 -97705.051 278385.082 -180680.03 -5.6039023
 312500     .3125  154983.125 -57363.584 -177.02948 -57186.555 212346.709 -155160.15 -5.9009826
 313000      .313  126829.613 -15942.928 -182.98156 -15759.946 142772.541 -127012.59 -6.0993852
 313500     .3135  96572.1364 25657.9251 -185.43091  25843.356 70914.2113 -96757.567 -6.1810302
 314000      .314  64740.3815 66722.6926 -183.72056 66906.4131 -1982.3111 -64924.102 -6.1240187
 314500     .3145  31858.1913 106569.561 -177.50118 106747.062 -74711.369 -32035.692 -5.9167059
 315000      .315  -1543.8953 144551.062 -167.20319 144718.266 -146094.96 1376.69209 -5.5734396
 315500     .3155  -34895.893 180032.933 -153.78271 180186.715 -214928.83   34742.11 -5.1260902
 316000      .316  -67592.528 212396.753 -137.93904 212534.692 -279989.28 67454.5885  -4.597968
 316500     .3165  -99032.896 241069.763 -119.82227 241189.585 -340102.66 98913.0733 -3.9940755
 317000      .317  -128653.91 265550.677 -99.264787 265649.942 -394204.59 128554.645 -3.3088262
 317500     .3175  -155951.94 285428.138 -76.052903  285504.19 -441380.08 155875.891 -2.5350968
 318000      .318  -180492.22 300391.919 -50.349202 300442.268 -480884.14 180441.873 -1.6783067
 318500     .3185  -201889.76 310221.717 -23.023293 310244.741 -512111.47 201866.733  -.7674431
 319000      .319  -219780.45 314762.449 4.75255156 314757.697  -534542.9 219785.204 .158418385
 319500     .3195  -233831.62  313926.49 32.2023122 313894.288 -547758.11 233863.822 1.07341041
 320000       .32  -243776.17 307714.322 59.0850572 307655.237 -551490.49 243835.256 1.96950191
 320500     .3205  -249436.13 296228.016 85.4410598 296142.575 -545664.15 249521.572 2.84803533
 321000      .321  -250734.29 279677.399 111.322467 279566.076 -530411.69 250845.614 3.71074888
 321500     .3215  -247691.37   258377.1 136.386562 258240.713 -506068.47 247827.756 4.54621874
 322000      .322  -240396.08 232721.349 159.711425 232561.637 -473117.43 240555.793 5.32371416
 322500     .3225  -228976.06 203154.151 180.296372 202973.854 -432130.21 229156.358 6.00987908
 323000      .323  -213607.45 170167.454 197.642422 169969.812 -383774.91 213805.097 6.58808073
 323500     .3235  -194538.23 134310.845 211.760595 134099.084 -328849.07  194749.99 7.05868649
 324000      .324  -172098.99 96193.3712 222.908729 95970.4625 -268292.36 172321.901 7.43029097
 324500     .3245  -146702.72 56479.1782 231.316972 56247.8612  -203181.9 146934.041 7.71056573
 325000      .325  -118828.97  15873.322 236.812858 15636.5091  -134702.3 119065.786 7.89376192
 325500     .3255  -88985.225 -24911.738 238.776217 -25150.514 -64073.487 89224.0014 7.95920724
 326000      .326  -57679.359 -65185.107 236.682396  -65421.79 7505.74822 57916.0416 7.88941321
 326500     .3265  -25427.929 -104279.06 230.545154  -104509.6 78851.1284 25658.4741 7.68483848
 327000      .327   7229.2239 -141543.94 220.821386 -141764.77 148773.168 -7008.4025 7.36071285
 327500     .3275   39726.618 -176350.15 208.147091 -176558.29 216076.764 -39518.471 6.93823635
 328000      .328  71480.3267 -208094.59 193.056343 -208287.64 279574.914  -71287.27 6.43521144
 328500     .3285  101910.657 -236217.15 175.656466 -236392.81 338127.806   -101735. 5.85521552
 329000      .329  130481.148 -260231.68 155.708535 -260387.38 390712.823 -130325.44 5.19028451
 329500     .3295   156717.91 -279744.61 133.168919 -279877.78 436462.521 -156584.74 4.43896395
 330000       .33  180197.669 -294448.75 108.492961 -294557.24  474646.42 -180089.18 3.61643205
[...]

 MAIN20 dumps OVER12 dice seed  SEEDSV =   3.0444871000000000E+09

Statistical output of  node  voltage   0.4287E+06 |              X0003AX0003BX0003C

1 ) -------------------------------------------------------------------------------------------------------------------------------
Statistical distribution of peak voltage at node  "X0003A".   The base voltage for per unit printout is  V-base = 4.28660705E+05
  Interval             voltage         voltage  in     Frequency    Cumulative               Per cent
    number         in per unit      physical units     (density)     frequency     .GE. current value
        27           1.3500000      5.78691952E+05             0             0          100.000000
        28           1.4000000      6.00124987E+05             5             5           98.333333
        29           1.4500000      6.21558022E+05            24            29           90.333333
        30           1.5000000      6.42991058E+05            52            81           73.000000
        31           1.5500000      6.64424093E+05           174           255           15.000000
        32           1.6000000      6.85857128E+05            29           284            5.333333
        33           1.6500000      7.07290163E+05             8           292            2.666667
        34           1.7000000      7.28723199E+05             1           293            2.333333
        35           1.7500000      7.50156234E+05             1           294            2.000000
        36           1.8000000      7.71589269E+05             1           295            1.666667
        37           1.8500000      7.93022304E+05             1           296            1.333333
        38           1.9000000      8.14455340E+05             1           297            1.000000
        39           1.9500000      8.35888375E+05             2           299             .333333
        40           2.0000000      8.57321410E+05             0           299             .333333
        41           2.0500000      8.78754445E+05             1           300             .000000
Summary of preceding table follows:       Grouped data     Ungrouped data
                                 Mean = 1.52183333E+00     1.52386492E+00
                             Variance = 5.14880156E-03     5.11786917E-03
                   Standard deviation = 7.17551501E-02     7.15392841E-02

2 ) -------------------------------------------------------------------------------------------------------------------------------
Statistical distribution of peak voltage at node  "X0003B".   The base voltage for per unit printout is  V-base = 4.28660705E+05
  Interval             voltage         voltage  in     Frequency    Cumulative               Per cent
    number         in per unit      physical units     (density)     frequency     .GE. current value
        27           1.3500000      5.78691952E+05             0             0          100.000000
        28           1.4000000      6.00124987E+05            41            41           86.333333
        29           1.4500000      6.21558022E+05            83           124           58.666667
        30           1.5000000      6.42991058E+05           169           293            2.333333
        31           1.5500000      6.64424093E+05             1           294            2.000000
        32           1.6000000      6.85857128E+05             1           295            1.666667
        33           1.6500000      7.07290163E+05             1           296            1.333333
        34           1.7000000      7.28723199E+05             3           299             .333333
        35           1.7500000      7.50156234E+05             1           300             .000000
Summary of preceding table follows:       Grouped data     Ungrouped data
                                 Mean = 1.45133333E+00     1.45524286E+00
                             Variance = 2.23065775E-03     2.30313223E-03
                   Standard deviation = 4.72298396E-02     4.79909599E-02

3 ) -------------------------------------------------------------------------------------------------------------------------------
  SUMMARY   SUMMARY   SUMMARY   SUMMARY   SUMMARY   SUMMARY   SUMMARY   SUMMARY   SUMMARY   SUMMARY   SUMMARY   SUMMARY   SUMMARY
3 ) -------------------------------------------------------------------------------------------------------------------------------
The following is a distribution of peak overvoltages among all output nodes of the last data card that have the same base voltage.
This distribution is for the maximum of the peaks at all output nodes with  V-base = 4.28660705E+05
  Interval             voltage         voltage  in     Frequency    Cumulative               Per cent
    number         in per unit      physical units     (density)     frequency     .GE. current value
        28           1.4000000      6.00124987E+05             0             0          100.000000
        29           1.4500000      6.21558022E+05             9             9           97.000000
        30           1.5000000      6.42991058E+05            70            79           73.666667
        31           1.5500000      6.64424093E+05           173           252           16.000000
        32           1.6000000      6.85857128E+05            28           280            6.666667
        33           1.6500000      7.07290163E+05             8           288            4.000000
        34           1.7000000      7.28723199E+05             4           292            2.666667
        35           1.7500000      7.50156234E+05             2           294            2.000000
        36           1.8000000      7.71589269E+05             1           295            1.666667
        37           1.8500000      7.93022304E+05             1           296            1.333333
        38           1.9000000      8.14455340E+05             1           297            1.000000
        39           1.9500000      8.35888375E+05             2           299             .333333
        40           2.0000000      8.57321410E+05             0           299             .333333
        41           2.0500000      8.78754445E+05             1           300             .000000
Summary of preceding table follows:       Grouped data     Ungrouped data
                                 Mean = 1.52833333E+00     1.53084554E+00
                             Variance = 4.77146042E-03     4.68331425E-03
                   Standard deviation = 6.90757586E-02     6.84347445E-02

Statistical output of branch voltage   0.4287E+06 |-1            X0003BX0003CX0003AX0003BX0003CX0003A

4 ) -------------------------------------------------------------------------------------------------------------------------------
Statistical distribution of peak voltage  for branch  "X0003A"  to  "X0003B".   Base voltage  for per unit output = 4.28660705E+05
  Interval             voltage         voltage  in     Frequency    Cumulative               Per cent
    number         in per unit      physical units     (density)     frequency     .GE. current value
        36           1.8000000      7.71589269E+05             0             0          100.000000
        37           1.8500000      7.93022304E+05             1             1           99.666667
        38           1.9000000      8.14455340E+05             1             2           99.333333
        39           1.9500000      8.35888375E+05            16            18           94.000000
        40           2.0000000      8.57321410E+05           106           124           58.666667
        41           2.0500000      8.78754445E+05            76           200           33.333333
        42           2.1000000      9.00187481E+05            70           270           10.000000
        43           2.1500000      9.21620516E+05            21           291            3.000000
        44           2.2000000      9.43053551E+05             3           294            2.000000
        45           2.2500000      9.64486586E+05             4           298             .666667
        46           2.3000000      9.85919622E+05             2           300             .000000
Summary of preceding table follows:       Grouped data     Ungrouped data
                                 Mean = 2.02533333E+00     2.02397339E+00
                             Variance = 4.09687848E-03     3.93068296E-03
                   Standard deviation = 6.40068628E-02     6.26951590E-02

5 ) -------------------------------------------------------------------------------------------------------------------------------
Statistical distribution of peak voltage  for branch  "X0003C"  to  "X0003A".   Base voltage  for per unit output = 4.28660705E+05
  Interval             voltage         voltage  in     Frequency    Cumulative               Per cent
    number         in per unit      physical units     (density)     frequency     .GE. current value
        39           1.9500000      8.35888375E+05             0             0          100.000000
        40           2.0000000      8.57321410E+05           299           299             .333333
        41           2.0500000      8.78754445E+05             1           300             .000000
Summary of preceding table follows:       Grouped data     Ungrouped data
                                 Mean = 1.97516667E+00     1.98543113E+00
                             Variance = 8.33333334E-06     5.61433384E-06
                   Standard deviation = 2.88675135E-03     2.36945855E-03

6 ) -------------------------------------------------------------------------------------------------------------------------------
  SUMMARY   SUMMARY   SUMMARY   SUMMARY   SUMMARY   SUMMARY   SUMMARY   SUMMARY   SUMMARY   SUMMARY   SUMMARY   SUMMARY   SUMMARY
6 ) -------------------------------------------------------------------------------------------------------------------------------
A distribution of peak values among all output branches of the last data card that have the same base value follows.  This
statistical distribution is for the maximum of the peaks at all of these output branches having base  voltage  = 4.28660705E+05
  Interval             voltage         voltage  in     Frequency    Cumulative               Per cent
    number         in per unit      physical units     (density)     frequency     .GE. current value
        40           2.0000000      8.57321410E+05             0             0          100.000000
        41           2.0500000      8.78754445E+05           200           200           33.333333
        42           2.1000000      9.00187481E+05            70           270           10.000000
        43           2.1500000      9.21620516E+05            21           291            3.000000
        44           2.2000000      9.43053551E+05             3           294            2.000000
        45           2.2500000      9.64486586E+05             4           298             .666667
        46           2.3000000      9.85919622E+05             2           300             .000000
Summary of preceding table follows:       Grouped data     Ungrouped data
                                 Mean = 2.04950000E+00     2.05434321E+00
                             Variance = 1.86429766E-03     1.49719629E-03
                   Standard deviation = 4.31775133E-02     3.86936208E-02

Blank card ends statistical tabulation requests.  |BLANK STATISTICS

                                      Sample curve symbols : "A", "B", and "C"
                                      Theoretical curve symbol : "*"
                                      Common curve symbol : "X"

        Switch  "X0001B"  to  "X0002B"            Switch  "X0001A"  to  "X0002A"            Switch  "X0001C"  to  "X0002C"
1.32420000E+00   switchings per column          1.32420000E+00   switchings per column     1.32420000E+00   switchings per column
              Columns                                     Columns                                     Columns
          5   10   15   20   25   30                5   10   15   20   25   30                5   10   15   20   25   30
     +----+----+----+----+----+----+           +----+----+----+----+----+----+           +----+----+----+----+----+----+
    X                                         X                                         X
    X                                         X                                         X
    X                                         X                                         X
    *A                                        X                                         X
    |*A                                       B*                                        |*C
    |A*                                       | X                                       | X
    |   X                                     | B *                                     |   *  C
    |       X                                 |       X                                 |     C *
    |      A    *                             |           *B                            |       C   *
    |                 * A                     |                 *    B                  |                 *  C
    |                       *     A           |                       X                 |                       *    C
    |                      A    *             |                           *   B         |                    C      *
    |  5.5000E-02                 *     A     |  5.5000E-02              B  *           |  5.5000E-02                 *     C
    |                           *      A      |                         B *             |                         C *
    |                  A    *                 |                       * B               |                       *     C
    |               A *                       |                B*                       |            C    *
    |         A *                             |          B*                             |        C  *
    |       * A                               |       X                                 |       *  C
    |  A*                                     |   X                                     | C *
    | *A                                      | X                                       | X
    |X                                        |X                                        |*C
    X                                         *B                                        X
    X                                         X                                         X
    X                                         X                                         *C
    X                                         X                                         X
   Time (scale = 3.33333333E-04  Sec/line)   Time (scale = 3.33333333E-04  Sec/line)   Time  (scale = 3.33333333E-04  Sec/line)

        Switch  "X0003C"  to  "XX0009"            Switch  "X0001B"  to  "X0002B"            Switch  "X0001A"  to  "X0002A"
1.32420000E+00   switchings per column          1.32420000E+00   switchings per column     1.32420000E+00   switchings per column
              Columns                                     Columns                                     Columns
          5   10   15   20   25   30                5   10   15   20   25   30                5   10   15   20   25   30
     +----+----+----+----+----+----+           +----+----+----+----+----+----+           +----+----+----+----+----+----+
    X                                         X                                         X
    X                                         X                                         X
    X                                         X                                         X
    *A                                        X                                         * C
    |X                                        |X                                        |*C
    | *A                                      | X                                       | X
    |  A*                                     |  B*                                     |   X
    |      A*                                 |    B  *                                 |     C *
    |         A *                             |           *  B                          |          C*
    |                 * A                     |                B*                       |                 X
    |                       *     A           |                       *    B            |                       X
    |                           *    A        |                           *B            |                           * C
    |  1.0000E-02                 *A          |  7.0000E-01                 *   B       |  7.0000E-01                C*
    |                           *   A         |                           *  B          |                           *  C
    |                A      *                 |                   B   *                 |                    C  *
    |                 * A                     |            B    *                       |                 X
    |           X                             |         B *                             |           * C
    |     A *                                 |     B *                                 |       X
    A   *                                     |   *  B                                  |   *C
    A *                                       | X                                       C *
    A*                                        |*B                                       |*C
    *A                                        *B                                        X
    X                                         X                                         X
    X                                         *B                                        X
    X                                         X                                         X
   Time (scale = 3.33333333E-04  Sec/line)   Time (scale = 3.33333333E-04  Sec/line)   Time  (scale = 3.33333333E-04  Sec/line)

   Switch  "X0001C"  to  "X0002C"
     1.32420000E+00   switchings per column
              Columns
          5   10   15   20   25   30
     +----+----+----+----+----+----+
    X
    X
    *A
    X
    |X
    |A*
    | A *
    |       X
    |           *    A
    |          A      *
    |                       *    A
    |                         A *
    |  7.0000E-01                A*
    |                          A*
    |                       X
    |                 *  A
    |           *       A
    |    A  *
    |   X
    A *
    A*
    *A
    X
    *A
    X
   Time (scale = 3.33333333E-04  Sec/line)
 .... Questionable Kolmogorov-Smirnov test result = 4.79983461E-01
 .... Questionable Kolmogorov-Smirnov test result = 8.61125218E-01
 .... Questionable Kolmogorov-Smirnov test result = 6.22920778E-01
 .... Questionable Kolmogorov-Smirnov test result = 8.70941508E-02
 .... Questionable Kolmogorov-Smirnov test result = 7.08509700E-01
 .... Questionable Kolmogorov-Smirnov test result = 9.61921384E-01
 .... Questionable Kolmogorov-Smirnov test result = 7.92096056E-01

Actual List Sizes for the preceding solution follow.       11-Nov-18  11.00.00
   Size  1-10:    27    26    38     3   138    13    42  5298     0     0
   Size 11-20:     0     7 -9999 -9999 -9999     0     0     0    23  3252
   Size 21-30:    36   180 14772     0 -9999     9 -9999 -9999 -9999     0
Seconds for overlays  1-5  :     0.000     0.000     0.000  -- (CP: Wait; Real)
Seconds for overlays  6-11 :     0.000     0.000     0.000
Seconds for overlays 12-15 :     0.000     0.000     0.000
Seconds for time-step loop :     0.000     0.000     0.000
Seconds after DELTAT-loop  :     0.000     0.000     0.000
                               ---------------------------
                   Totals  :     0.000     0.000     0.000

