   ---   55   cards of disk file read into card cache cells  1   onward.
 <===> Done with  "/"-card sorting by data class.    Remember that the source file appears different from interpreted input data.
Alternative Transients Program (ATP),  F77 GNU Linux or DOS.  All rights reserved by Can/Am user group of Portland, Oregon, USA.
 Date (dd-mth-yy) and time of day (hh.mm.ss) = 11-Nov-18  11.00.00    Name of disk plot file, if any, is
Consult the 860-page ATP Rule Book of the Can/Am EMTP User Group in Portland,  Oregon, USA.  Source code date is
Total size of LABCOM tables = 16446853 INTEGER words.  31 VARDIM  List Sizes follow:  6002  10K  192K  900  420K  1200  15K
  120K  2250  3800  720  2K  72800  510  800K  800  90  254  800K  100K  3K  15K  192K  120  45K  260K  600  210K  1100  19  200K
--------------------------------------------------+--------------------------------------------------------------------------------
Descriptive interpretation of input data cards.   |  Input data card images are shown below, all 80 columns, character by character
                                                  0         1         2         3         4         5         6         7         8
                                                  012345678901234567890123456789012345678901234567890123456789012345678901234567890
--------------------------------------------------+--------------------------------------------------------------------------------
Comment card.   KOMPAR > 0.                       |C data:Caso0_ReEnergizacao_Convenc_RPI.atp
Marker card preceding new EMTP data case.         |BEGIN NEW DATA CASE
Comment card.   KOMPAR > 0.                       |C $DUMMY, XYZ000
Misc. data.     1.000E-06   1.000E+00   0.000E+00 |   1.E-6      1.
Misc. data.  500  1  0  0  1  0  0  1  300  0     |     500       1       0       0       1       0       0       1     300
Statistics data.      1    1    0    0    1    0  |       1       1       0       0       1      -1                               0
Series R-L-C.   5.000E+00  7.500E-02  0.000E+00   |  X0001AX0007A                5.   75.                                         0
Series R-L-C.   5.000E+00  7.500E-02  0.000E+00   |  X0001BX0007B                5.   75.                                         0
Series R-L-C.   5.000E+00  7.500E-02  0.000E+00   |  X0001CX0007C                5.   75.                                         0
Series R-L-C.   2.000E+02  0.000E+00  0.000E+00   |  X0007AX0001A              200.                                               0
Series R-L-C.   2.000E+02  0.000E+00  0.000E+00   |  X0007BX0001B              200.                                               0
Series R-L-C.   2.000E+02  0.000E+00  0.000E+00   |  X0007CX0001C              200.                                               0
Series R-L-C.   1.516E+00  1.608E+00  0.000E+00   |  X0003BXX0008            1.5155 1608.                                         0
Series R-L-C.   1.516E+00  1.608E+00  0.000E+00   |  X0003AXX0008            1.5155 1608.                                         0
Series R-L-C.   1.516E+00  1.608E+00  0.000E+00   |  X0003CXX0008            1.5155 1608.                                         0
Series R-L-C.   3.272E-01  3.472E-01  0.000E+00   |  XX0008                   .3272 347.2                                         0
Series R-L-C.   3.000E+01  0.000E+00  0.000E+00   |  XX0009                     30.                                               0
Series R-L-C.   9.000E+02  0.000E+00  0.000E+00   |  X0002AX0010A              900.                                               0
Series R-L-C.   9.000E+02  0.000E+00  0.000E+00   |  X0002BX0010B              900.                                               0
Series R-L-C.   9.000E+02  0.000E+00  0.000E+00   |  X0002CX0010C              900.                                               0
Dynamic $INCLUDE uses fixed RAM cache to delay.   |$INSERT, C:\SimulacaoATP\2\EXT1.pch
J. Marti line, mode  1   parameters begin.        |-1X0010AX0006C                2.  0.00              -2 3
J. Marti line, mode  2   parameters begin.        |-2X0010BX0006A                2.  0.00              -2 3
J. Marti line, mode  3   parameters begin.        |-3X0010CX0006B                2.  0.00              -2 3
TR(1,1 )...  0.667-0.707-0.317                    |  0.66668704 -0.70710678 -0.31743981
TI(1,1 )...  0.000 0.000 0.004                    |  0.00000000  0.00000000  0.00360196
TR(2,1 )...  0.333 0.000 0.894                    |  0.33285412  0.00000000  0.89350256
TI(2,1 )... -0.016 0.000 0.010                    | -0.01627623  0.00000000  0.00954818
TR(3,1 )...  0.667 0.707-0.317                    |  0.66668704  0.70710678 -0.31743981
TI(3,1 )...  0.000 0.000 0.004                    |  0.00000000  0.00000000  0.00360196
Dynamic $INCLUDE uses fixed RAM cache to delay.   |$INSERT, C:\SimulacaoATP\2\CONV2.pch
J. Marti line, mode  1   parameters begin.        |-1X0004AX0005C                2.  0.00              -2 3
J. Marti line, mode  2   parameters begin.        |-2X0004BX0005A                2.  0.00              -2 3
J. Marti line, mode  3   parameters begin.        |-3X0004CX0005B                2.  0.00              -2 3
TR(1,1 )...  0.667-0.707-0.317                    |  0.66668704 -0.70710678 -0.31743981
TI(1,1 )...  0.000 0.000 0.004                    |  0.00000000  0.00000000  0.00360196
TR(2,1 )...  0.333 0.000 0.894                    |  0.33285412  0.00000000  0.89350256
TI(2,1 )... -0.016 0.000 0.010                    | -0.01627623  0.00000000  0.00954818
TR(3,1 )...  0.667 0.707-0.317                    |  0.66668704  0.70710678 -0.31743981
TI(3,1 )...  0.000 0.000 0.004                    |  0.00000000  0.00000000  0.00360196
Dynamic $INCLUDE uses fixed RAM cache to delay.   |$INSERT, C:\SimulacaoATP\2\EXT3.pch
J. Marti line, mode  1   parameters begin.        |-1X0005AX0003A                2.  0.00              -2 3
J. Marti line, mode  2   parameters begin.        |-2X0005BX0003B                2.  0.00              -2 3
J. Marti line, mode  3   parameters begin.        |-3X0005CX0003C                2.  0.00              -2 3
TR(1,1 )...  0.667-0.707-0.317                    |  0.66668704 -0.70710678 -0.31743981
TI(1,1 )...  0.000 0.000 0.004                    |  0.00000000  0.00000000  0.00360196
TR(2,1 )...  0.333 0.000 0.894                    |  0.33285412  0.00000000  0.89350256
TI(2,1 )... -0.016 0.000 0.010                    | -0.01627623  0.00000000  0.00954818
TR(3,1 )...  0.667 0.707-0.317                    |  0.66668704  0.70710678 -0.31743981
TI(3,1 )...  0.000 0.000 0.004                    |  0.00000000  0.00000000  0.00360196
Dynamic $INCLUDE uses fixed RAM cache to delay.   |$INSERT, C:\SimulacaoATP\2\CONV4.pch
J. Marti line, mode  1   parameters begin.        |-1X0006AX0004C                2.  0.00              -2 3
J. Marti line, mode  2   parameters begin.        |-2X0006BX0004A                2.  0.00              -2 3
J. Marti line, mode  3   parameters begin.        |-3X0006CX0004B                2.  0.00              -2 3
TR(1,1 )...  0.667-0.707-0.317                    |  0.66668704 -0.70710678 -0.31743981
TI(1,1 )...  0.000 0.000 0.004                    |  0.00000000  0.00000000  0.00360196
TR(2,1 )...  0.333 0.000 0.894                    |  0.33285412  0.00000000  0.89350256
TI(2,1 )... -0.016 0.000 0.010                    | -0.01627623  0.00000000  0.00954818
TR(3,1 )...  0.667 0.707-0.317                    |  0.66668704  0.70710678 -0.31743981
TI(3,1 )...  0.000 0.000 0.004                    |  0.00000000  0.00000000  0.00360196
Blank card ending branches.  IBR, NTOT = 26  27   |BLANK BRANCH
Switch.   5.50E-02  1.00E-03  0.00E+00  3.33E+03  |  X0001BX0002B      .055      .001               3333.STATISTICS               0
Switch.   5.50E-02  1.00E-03  0.00E+00  3.33E+03  |  X0001AX0002A      .055      .001               3333.STATISTICS               0
Switch.   5.50E-02  1.00E-03  0.00E+00  3.33E+03  |  X0001CX0002C      .055      .001               3333.STATISTICS               0
Switch.   1.00E-02  1.00E-03  0.00E+00  0.00E+00  |  X0003CXX0009       .01      .001                    STATISTICS               1
Switch.   7.00E-01  1.00E-03  0.00E+00  0.00E+00  |  X0001BX0002B        .7      .001                    STATISTICS               0
Switch.   7.00E-01  1.00E-03  0.00E+00  0.00E+00  |  X0001AX0002A        .7      .001                    STATISTICS               0
Switch.   7.00E-01  1.00E-03  0.00E+00  0.00E+00  |  X0001CX0002C        .7      .001                    STATISTICS               0
Switch.   0.00E+00  6.98E-01  0.00E+00  0.00E+00  |  X0002AX0010A                .698                                             0
Switch.   0.00E+00  6.98E-01  0.00E+00  0.00E+00  |  X0002BX0010B                .698                                             0
Switch.   0.00E+00  6.98E-01  0.00E+00  0.00E+00  |  X0002CX0010C                .698                                             0
Switch.   7.10E-01  0.00E+00  0.00E+00  0.00E+00  |  X0002AX0010A       .71                                                       0
Switch.   7.10E-01  0.00E+00  0.00E+00  0.00E+00  |  X0002BX0010B       .71                                                       0
Switch.   7.10E-01  0.00E+00  0.00E+00  0.00E+00  |  X0002CX0010C       .71                                                       0
Blank card ending switches.   KSWTCH = 13.        |BLANK SWITCH
Source.   4.29E+05  6.00E+01  0.00E+00 -1.00E+00  |14X0007A  428660.705       60.                                     -1.      100.
Source.   4.29E+05  6.00E+01 -1.20E+02 -1.00E+00  |14X0007B  428660.705       60.     -120.                           -1.      100.
Source.   4.29E+05  6.00E+01 -2.40E+02 -1.00E+00  |14X0007C  428660.705       60.     -240.                           -1.      100.
Blank card ends electric sources.  KCONST = 3     |BLANK SOURCE

     Total network loss  P-loss  by summing injections =   2.151684236218E+08

Card of names for time-step loop output.          |  X0003AX0003BX0003C
Output voltage differences for pairs of A6 names  |-5X0003BX0003CX0003AX0003BX0003CX0003A
Blank card ending requests for output variables.  |BLANK OUTPUT

Column headings for the  7   EMTP output variables follow.  These are divided among the 5 possible classes as follows ....
  First  6     output variables are electric-network voltage differences (upper voltage minus lower voltage);
  Next   1     output variables are branch currents (flowing from the upper node to the lower node);
   Step      Time      X0003A     X0003B     X0003C     X0003B     X0003A     X0003C     X0003C
                                                        X0003C     X0003B     X0003A     XX0009
 ***      Phasor I(0) =  2.1726922E+01                     Switch  "X0001B"  to  "X0002B"  closed in the steady-state.
 ***      Phasor I(0) =  3.3623675E+02                     Switch  "X0001A"  to  "X0002A"  closed in the steady-state.
 ***      Phasor I(0) = -3.5500775E+02                     Switch  "X0001C"  to  "X0002C"  closed in the steady-state.
 ***                    Switch  "X0002A"  to  "X0010A"  closed  after  0.00000000E+00  sec.
 ***                    Switch  "X0002B"  to  "X0010B"  closed  after  0.00000000E+00  sec.
 ***                    Switch  "X0002C"  to  "X0010C"  closed  after  0.00000000E+00  sec.
      0       0.0  129916.244 -244837.73 111666.038 -356503.77 374753.977 -18250.206        0.0
    500     .5E-3  165658.039 -237682.02 69925.7347 -307607.76 403340.061 -95732.304        0.0
   1000     .1E-2  196183.508  -222423.8 25250.8852 -247674.68 418607.306 -170932.62        0.0
   1500     .0015  219026.989  -199463.6 -20175.305  -179288.3 418490.593 -239202.29        0.0
   2000      .002  568460.186 -125101.42  -508206.5 383105.084 693561.605 -.107667E7        0.0
   2500     .0025  564754.077 32198.0723 -627102.87 659300.941 532556.005 -.119186E7        0.0
   3000      .003  508214.483 168791.468 -713247.99 882039.461 339423.015 -.122146E7        0.0
   3500     .0035    419668.8  274664.82 -733565.37  .100823E7  145003.98 -.115323E7        0.0
   4000      .004  310682.685 390619.206 -687422.58 .1078042E7 -79936.521 -998105.26        0.0
   4500     .0045  187674.913  498177.42 -632537.01 .1130714E7 -310502.51 -820211.92        0.0
   5000      .005  35081.8662 575481.227 -554768.72  .113025E7 -540399.36 -589850.59        0.0
   5500     .0055  -254500.16 608682.154 -306015.88 914698.033 -863182.32 -51515.715        0.0
   6000      .006   -461675.8 570120.722 -78914.619  649035.34  -.10318E7 382761.184        0.0
   6500     .0065    -576900.  505938.64 118578.002 387360.638 -.108284E7 695478.004        0.0
   7000      .007  -639525.78  429414.38 268432.274 160982.107 -.106894E7 907958.052        0.0
   7500     .0075  -663591.34  344147.67 355501.019 -11353.349 -.100774E7 .1019092E7        0.0
   8000      .008  -653325.03  238682.04 410352.449 -171670.41 -892007.07 .1063677E7        0.0
   8500     .0085  -606193.43 118450.852 445542.129 -327091.28 -724644.28 .1051736E7        0.0
   9000      .009  -483800.33 4095.30134 410716.976 -406621.68 -487895.63 894517.307        0.0
   9500     .0095  -336913.44 -81107.853  344128.12 -425235.97 -255805.59 681041.559        0.0
  10000       .01  -214086.62 -140222.06 278952.261 -419174.32 -73864.559 493038.877        0.0
 ***                                                             Close switch  "X0003C"  to  "XX0009"  after  1.00010000E-02  sec.
  10500     .0105  -172001.71 -243352.24 22295.2698 -265647.51 71350.5351 194296.977  743.17566
  11000      .011  -96843.087 -284269.06 21634.2368  -305903.3 187425.974 118477.323 721.141227
  11500     .0115  -39597.206 -328001.57 23272.1504 -351273.72  288404.36 62869.3565 775.738345
  12000      .012  -6745.8696 -370869.74 27790.6518  -398660.4 364123.875 34536.5214 926.355061
  12500     .0125  2388.51392 -392903.34 32472.3811 -425375.72  395291.85 30083.8672  1082.4127
  13000      .013   6121.6863 -416572.08 37082.1348 -453654.21 422693.762 30960.4485 1236.07116
  13500     .0135  -35036.208 -460783.69 43105.0472 -503888.74 425747.484  78141.255 1436.83491
  14000      .014  -64807.275 -545398.41 54691.1583 -600089.57 480591.139 119498.434 1823.03861
  14500     .0145  27959.8764 -522819.84 62206.1191 -585025.96 550779.719 34246.2427  2073.5373
  15000      .015  124627.845 -481002.11 62618.4237 -543620.54 605629.958 -62009.421 2087.28079
  15500     .0155  217343.794 -432241.82 56517.9731  -488759.8 649585.616 -160825.82 1883.93244
  16000      .016  322689.882 -374004.99 47523.1515 -421528.15 696694.876 -275166.73 1584.10505
  16500     .0165   433979.04 -296587.97   37433.69 -334021.66 730567.006 -396545.35 1247.78967
  17000      .017  542445.554 -191319.49 25725.9162 -217045.41 733765.049 -516719.64 857.530539
  17500     .0175  622039.545 -67281.083 14046.0417 -81327.125 689320.628  -607993.5 468.201391
  18000      .018  661191.521 75127.3689 6749.01698 68378.3519 586064.152  -654442.5 224.967233
  18500     .0185  662775.241 218729.704 1883.63924 216846.064 444045.537  -660891.6 62.7879746
  19000      .019  621529.226 345816.957 -5116.7224 350933.679 275712.269 -626645.95 -170.55741
  19500     .0195  539512.866 455334.247 -13687.129 469021.377 84178.6186   -553200. -456.23765
  20000       .02  420240.026 542448.693 -22764.331 565213.024 -122208.67 -443004.36 -758.81102
  20500     .0205  276585.826 601817.365 -31603.672 633421.037 -325231.54  -308189.5 -1053.4557
  21000      .021  122420.187 629092.431 -39963.746 669056.177 -506672.24 -162383.93 -1332.1249
  21500     .0215   -36713.93 615450.116 -46891.846 662341.962 -652164.05 -10177.916 -1563.0615
  22000      .022  -188533.83 566211.542 -50922.819  617134.36 -754745.37 137611.008 -1697.4273
  22500     .0225  -315082.67 499398.474   -52219.1 551617.574 -814481.14 262863.568 -1740.6367
  23000      .023  -409685.92 424075.548 -51419.019 475494.568 -833761.47 358266.901 -1713.9673
  23500     .0235  -473057.73 341336.468 -49191.724 390528.191  -814394.2 423866.005 -1639.7241
  24000      .024  -508510.15 253370.702  -45670.06 299040.762 -761880.85 462840.089 -1522.3353
  24500     .0245  -519848.53 164841.173 -40846.508 205687.681 -684689.71 479002.025 -1361.5503
  25000      .025  -511421.86 80902.6517  -34974.25 115876.901 -592324.51 476447.609 -1165.8083
  25500     .0255  -489905.44 2843.92341 -28013.366 30857.2889 -492749.36 461892.072 -933.77885
  26000      .026  -459738.25 -69568.905 -19446.918 -50121.987 -390169.35 440291.336 -648.23059
  26500     .0265   -424137.1 -138225.65 -9213.7376 -129011.91 -285911.45 414923.359 -307.12459
  27000      .027  -385727.43 -205251.31  1973.6696 -207224.98 -180476.12 387701.101 65.7889867
  27500     .0275  -344919.04 -271288.06  13255.679 -284543.74 -73630.981 358174.716 441.855965
  28000      .028  -300124.94 -335810.19 23980.7635 -359790.95 35685.2489 324105.702 799.358783
  28500     .0285  -248411.87 -397096.95 33647.9371 -430744.89 148685.083 282059.804  1121.5979
  29000      .029  -187199.69 -452770.46 41788.6181 -494559.08 265570.774 228988.306 1392.95394
  29500     .0295  -116209.93 -500391.84 48130.4001 -548522.24 384181.912  164340.33 1604.34667
  30000       .03  -35875.459 -536055.06 52659.5041 -588714.57 500179.605 88534.9633  1755.3168
  30500     .0305  53545.6909 -554198.04 55414.1686 -609612.21 607743.728 1868.47762 1847.13895
  31000      .031   150539.15 -549501.25 56391.1709 -605892.43 700040.404 -94147.979  1879.7057
  31500     .0315  250984.568 -518868.23 55551.9298 -574420.16 769852.795 -195432.64 1851.73099
  32000      .032  348719.566 -461901.61 52894.3067 -514795.92 810621.176 -295825.26 1763.14356
  32500     .0325  437092.938 -380349.43 48470.7082 -428820.14 817442.373 -388622.23 1615.69027
  33000      .033  509980.929 -277827.41 42360.8118 -320188.22 787808.341 -467620.12 1412.02706
  33500     .0335  562104.307 -159809.55 34744.4499   -194554. 721913.853 -527359.86 1158.14833
  34000      .034  589498.409 -33126.944 25965.6509 -59092.595 622625.353 -563532.76 865.521696
  34500     .0345  589844.259 94619.4301 16452.2806 78167.1495 495224.829 -573391.98 548.409355
  35000      .035  562787.636 215794.839  6589.9236 209204.915 346992.797 -556197.71  219.66412
  35500     .0355  510073.861 323641.072 -3309.3219 326950.393  186432.79 -513383.18 -110.31073
  36000      .036  435289.804  412990.76 -12965.665 425956.425 22299.0436 -448255.47 -432.18884
  36500     .0365  343365.162   480621.8 -22111.129  502732.93 -137256.64 -365476.29 -737.03765
  37000      .037  239840.938 525141.082 -30499.193 555640.275 -285300.14 -270340.13 -1016.6398
  37500     .0375  130180.835  546638.42 -37891.856 584530.275 -416457.58 -168072.69 -1263.0619
  38000      .038  19493.7627 546494.042 -44038.609 590532.652 -527000.28 -63532.372 -1467.9536
  38500     .0385  -87571.423 527228.471 -48685.357 575913.829 -614799.89 38886.0657 -1622.8452
  39000      .039  -187047.32 492084.764 -51607.019 543691.783 -679132.08   135440.3  -1720.234
  39500     .0395  -275919.59 444347.742 -52639.931 496987.673 -720267.33  223279.66 -1754.6644
  40000       .04  -352186.72  386772.62 -51699.648 438472.268 -738959.34 300487.071 -1723.3216
  40500     .0405  -414637.76 321381.442 -48791.997 370173.439  -736019.2 365845.763 -1626.3999
  41000      .041  -462573.11 249531.543 -44019.789 293551.332 -712104.66 418553.323 -1467.3263
  41500     .0415  -495613.01 172105.521 -37570.534 209676.055 -667718.53 458042.476 -1252.3511
  42000      .042  -513564.02 89760.8398 -29690.019 119450.858 -603324.86 483874.003 -989.66728
  % % % % % %   Suspended simulation;  plot data space exhausted;  SPY SPACE is required.   LIMBUF =  340000.
  % % % % % %   Suspended simulation;  plot data space exhausted;  SPY SPACE is required.   LIMBUF =  340000.
  +++  Time-sharing disabled.   Send  user-keyed interrupt to silence alarm.
   Current values.  INDBUF  INDBEG  LIMBUF  MFLUSH  NUMDCD  KCARD1  KCARD2
                    339994      50  340000    1000      46       1      50
Plot timespan now in memory (in sec) = 0.00000000E+00   4.24930000E-02
   ++++  Begin plot-data copy from memory to disk.   MFLUSH, INDBUF, N4, Tbeg,  Tend = 1001  339994       1  -1.00000E+00
1.00000E+19
  42500     .0425  -516323.39 3208.00345 -20663.823 23871.8264  -519531.4  495659.57  -688.7941
  43000      .043  -503834.49 -86485.399  -10814.28 -75671.119 -417349.09 493020.208 -360.47599
  43500     .0435  -476112.24 -177602.07 -498.90405 -177103.17 -298510.17 475613.338 -16.630135
  44000      .044  -433336.17 -267583.97 9901.24411 -277485.22 -165752.19 443237.411  330.04147
  44500     .0445  -375988.16 -353029.96 19998.2797 -373028.24 -22958.196 395986.438 666.609325
  45000      .045  -305024.47 -429920.48 29412.9967 -459333.48  124896.01 334437.471 980.433223
  45500     .0455  -222037.41 -494006.64 37791.5956 -531798.24 271969.234 259829.006 1259.71985
  46000      .046  -129334.65 -541244.01 44824.6629 -586068.67 411909.359 174159.314 1494.15543
  46500     .0465  -29903.901  -568195.8 50263.5891 -618459.39 538291.904 80167.4898 1675.45297
  47000      .047  72708.5206 -572395.68 53929.9418 -626325.62   645104.2 -18778.579 1797.66473
  47500     .0475  174561.462 -552661.94 55717.9019 -608379.85 727223.406 -118843.56  1857.2634
  48000      .048  271516.734 -509305.61  55592.242 -564897.86 780822.347 -215924.49 1853.07473
  48500     .0485  359478.146 -444163.94  53582.974 -497746.92  803642.09 -305895.17 1786.09913
  49000      .049  434650.716 -360446.27 49777.9203 -410224.19 795096.984  -384872.8 1659.26401
  49500     .0495  493781.974 -262433.89 44316.4018  -306750.3 756215.868 -449465.57 1477.21339
  50000       .05  534354.788  -155094.7 37385.9236 -192480.62 689449.487 -496968.86 1246.19745
  50500     .0505  554715.875 -43667.287 29219.8613 -72887.149 598383.163 -525496.01 973.995376
  51000      .051  554137.914 66741.0852 20092.8406 46648.2446 487396.829 -534045.07 669.761355
  51500     .0515  532821.351 171504.014 10313.0295 161190.984 361317.338 -522508.32  343.76765
  52000      .052  491845.065 266737.472 212.762166  266524.71 225107.593  -491632.3 7.09207221
  52500     .0525  433073.361 349445.569 -9861.7538 359307.323 83627.7919 -442935.11 -328.72513
  53000      .053  359024.552 417539.637 -19561.832 437101.469 -58515.085 -378586.38 -652.06105
  53500     .0535  272712.869 469747.109 -28548.426 498295.535 -197034.24 -301261.29  -951.6142
  54000      .054  177485.025 505451.317 -36503.996 541955.313 -327966.29 -213989.02 -1216.7999
  54500     .0545  76871.5627 524510.827 -43143.498 567654.325 -447639.26 -120015.06 -1438.1166
  55000      .055  -25540.246 527096.706 -48224.522 575321.228 -552636.95 -22684.276 -1607.4841
  55500     .0555  -126216.92 513571.403 -51556.596 565127.999 -639788.33 74660.3264 -1718.5532
  56000      .056  -221777.54 484424.725 -53009.392 537434.117 -706202.26 168768.147 -1766.9797
  56500     .0565  -309080.04 440276.199 -52519.406 492795.604 -749356.23  256560.63 -1750.6469
  57000      .057  -385293.99 381940.918 -50094.596 432035.514  -767234.9  335199.39 -1669.8199
 ***                                                             Open  switch  "X0001B"  to  "X0002B"  after  5.71720000E-02  sec.
  57500     .0575  -447962.61 310539.961 -45816.092 356356.054 -758502.57 402146.515 -1527.2031
  58000      .058  -495059.06  227624.31 -39836.154 267460.464 -722683.37 455222.904 -1327.8718
  58500     .0585  -525039.84 135278.072  -32372.23 167650.302 -660317.91 492667.612 -1079.0743
  59000      .059  -540549.07 45173.0222 -23991.301 69164.3235 -585722.09 516557.768 -799.71004
 ***                                                             Open  switch  "X0001A"  to  "X0002A"  after  5.93570000E-02  sec.
  59500     .0595  -540439.21  -21054.16 -15424.269 -5629.8911 -519385.05 525014.939  -514.1423
  60000       .06  -513757.62 -78731.687 -5448.0884 -73283.599 -435025.94 508309.536 -181.60295
 ***                                                             Open  switch  "X0001C"  to  "X0002C"  after  6.01810000E-02  sec.
  60500     .0605  -469266.64 -137808.54 4789.06514  -142597.6  -331458.1 474055.709 159.635505
  61000      .061  -410452.03 -199125.71 14974.8865  -214100.6 -211326.32 425426.917 499.162884
  61500     .0615  -370810.43 -258095.47 26206.2313  -284301.7 -112714.96 397016.657 873.541042
  62000      .062  -315187.15 -316093.67 34006.8256  -350100.5  906.51635 349193.979 1133.56085
  62500     .0625  -237128.08 -346304.48  33589.356 -379893.84 109176.404 270717.434  1119.6452
  63000      .063  -186693.41 -387969.36 28485.7104 -416455.07 201275.948 215179.117 949.523679
  63500     .0635  -116855.23 -420974.69  22061.967 -443036.65 304119.453 138917.201 735.398899
  64000      .064  -32711.767 -441811.05 15386.6753 -457197.72 409099.282 48098.4421 512.889178
  64500     .0645  53987.7339  -455184.1 8217.67066 -463401.77 509171.835 -45770.063 273.922355
  65000      .065  124093.943 -456000.61 991.730039 -456992.34 580094.558 -123102.21  33.057668
  65500     .0655  193233.749 -465904.48 -5687.2585 -460217.22 659138.224 -198921.01 -189.57528
  66000      .066  218191.991 -488871.89 -9776.4118 -479095.48  707063.88  -227968.4 -325.88039
  66500     .0665  250661.502 -497113.08 -9671.5985 -487441.48 747774.583  -260333.1 -322.38662
  67000      .067  299198.447 -488730.59 -8498.9205 -480231.67  787929.04 -307697.37 -283.29735
  67500     .0675  352635.116 -467197.07 -6475.3642 -460721.71 819832.188 -359110.48 -215.84547
  68000      .068  394980.618 -436183.96 -2919.5822 -433264.38 831164.581  -397900.2 -97.319405
  68500     .0685  426841.641  -390292.5  1770.6995  -392063.2 817134.143 -425070.94 59.0233167
  69000      .069  454439.839 -343932.37 7189.89139 -351122.27 798372.213 -447249.95 239.663046
  69500     .0695   459125.14 -289584.36  12655.154 -302239.52 748709.501 -446469.99 421.838467
  70000       .07  475341.579 -224183.46 14840.1063 -239023.56 699525.036 -460501.47 494.670211
  70500     .0705  477547.295 -168244.53 14572.4659   -182817. 645791.825 -462974.83 485.748865
  71000      .071  476886.232 -110451.43 13525.3564 -123976.78 587337.659 -463360.88 450.845214
  71500     .0715  467201.374 -39728.781 11991.9756 -51720.757 506930.155  -455209.4 399.732519
  72000      .072  451369.894 39850.6862 9457.22902 30393.4572 411519.208 -441912.67 315.240967
  72500     .0725  426266.446 113129.291 6306.48778 106822.803 313137.155 -419959.96 210.216259
  73000      .073  384987.694 185728.604 3038.51079 182690.093 199259.089 -381949.18 101.283693
  73500     .0735  332831.812 239439.815 89.1078274 239350.707 93391.9971  -332742.7 2.97026091
  74000      .074  275338.098 281649.475 -1237.7487 282887.224  -6311.377 -276575.85 -41.258289
  74500     .0745  224024.286 321813.993 -1662.0888 323476.082 -97789.707 -225686.38  -55.40296
  75000      .075  163640.097 367415.301 -1906.5325 369321.833  -203775.2 -165546.63 -63.551083
  75500     .0755  99337.8569 407825.988 -1389.3723  409215.36 -308488.13 -100727.23 -46.312408
  76000      .076  34169.8806 442348.163  245.92824 442102.235 -408178.28 -33923.952 8.19760801
  76500     .0765   -33192.19  473699.15 2504.21427 471194.936 -506891.34 35696.4046 83.4738089
  77000      .077  -97738.245 488863.615 5160.19059 483703.424 -586601.86 102898.435 172.006353
  77500     .0775  -151718.37 495001.778 7128.00183 487873.776 -646720.15 158846.374 237.600061
  78000      .078  -203966.17 487629.898 8108.09196 479521.806 -691596.07 212074.261 270.269732
  78500     .0785  -261669.74 478908.211 8589.22416 470318.987 -740577.95 270258.965 286.307472
  79000      .079  -310752.33 464100.152  8754.3197 455345.832 -774852.49 319506.654 291.810657
  79500     .0795  -352824.03 449025.868 8319.17394 440706.694  -801849.9 361143.206 277.305798
  80000       .08  -389740.49 426928.017 7269.22794 419658.789 -816668.51  397009.72 242.307598
  80500     .0805  -416242.59 391133.055 5934.95752 385198.098 -807375.64 422177.544 197.831917
  81000      .081  -434374.37 341913.846 4620.21473 337293.631 -776288.22 438994.585 154.007158
  81500     .0815  -450184.61 281982.683   3811.224 278171.459  -732167.3 453995.837   127.0408
  82000      .082  -462293.31 224850.352 3215.36933 221634.983 -687143.66 465508.677 107.178978
  82500     .0825  -462745.87 164059.377 2569.28095 161490.097 -626805.25 465315.154 85.6426983
  83000      .083  -459511.42  105299.02 2137.05166 103161.968 -564810.44 461648.468 71.2350553
  83500     .0835  -446522.96 44595.6359 2251.65488  42343.981 -491118.59 448774.612 75.0551627
  84000      .084  -419834.27 -19183.295 2829.04012 -22012.335 -400650.97  422663.31 94.3013374
  84500     .0845  -383916.87 -87058.541 3839.08894  -90897.63 -296858.33 387755.961 127.969631
  % % % % % %   Suspended simulation;  plot data space exhausted;  SPY SPACE is required.   LIMBUF =  340000.
  % % % % % %   Suspended simulation;  plot data space exhausted;  SPY SPACE is required.   LIMBUF =  340000.
  +++  Time-sharing disabled.   Send  user-keyed interrupt to silence alarm.
   Current values.  INDBUF  INDBEG  LIMBUF  MFLUSH  NUMDCD  KCARD1  KCARD2
                    339994      50  340000    1001      46       1      50
Plot timespan now in memory (in sec) = 4.24919985E-02   8.49850000E-02
   ++++  Begin plot-data copy from memory to disk.   MFLUSH, INDBUF, N4, Tbeg,  Tend = 1002  339994       1  -1.00000E+00
1.00000E+19
  85000      .085  -344090.22 -152414.09  4902.9321 -157317.02 -191676.13 348993.153  163.43107
  85500     .0855   -303406.6 -212062.76 5530.95685 -217593.71 -91343.848 308937.562 184.365228
  86000      .086   -256635.1 -270558.16 5921.79026 -276479.95 13923.0575 262556.893 197.393009
  86500     .0865  -208889.72 -318828.27 6195.90414 -325024.17 109938.545 215085.627 206.530138
  87000      .087  -151981.72 -360505.75 6135.85927 -366641.61 208524.025 158117.583 204.528642
  87500     .0875  -88025.129 -397928.83 5743.90386 -403672.74 309903.705 93769.0333 191.463462
  88000      .088  -20948.063 -432401.35  5304.4222 -437705.77 411453.287 26252.4847 176.814073
  88500     .0885  40849.0574 -457910.86 4795.22712 -462706.09 498759.919  -36053.83 159.840904
  89000      .089  96768.7396 -476064.72 4284.48117  -480349.2 572833.463 -92484.258 142.816039
  89500     .0895   151963.04 -487147.54 3795.33821 -490942.88 639110.579  -148167.7 126.511274
  90000       .09  202163.665 -486161.06  3208.2574 -489369.31 688324.722 -198955.41 106.941913
  90500     .0905  252448.611  -478524.1 2559.14868 -481083.25  730972.71 -249889.46  85.304956
  91000      .091  301510.758 -464804.39 2190.22817 -466994.61 766315.144 -299320.53 73.0076057
  91500     .0915  347831.854  -444639.5 2222.08778 -446861.59 792471.359 -345609.77 74.0695928
  92000      .092  382458.151  -413533.7  2468.3612 -416002.07 795991.856 -379989.79 82.2787068
  92500     .0925   408794.97 -375657.08 2791.63475 -378448.71 784452.049 -406003.34 93.0544917
  93000      .093  427434.056 -331934.54 3041.44545 -334975.99 759368.599 -424392.61 101.381515
  93500     .0935  436778.439 -281433.16 3196.61772 -284629.78 718211.601 -433581.82 106.553924
  94000      .094  442230.218 -228204.53 3297.51061 -231502.04 670434.747 -438932.71  109.91702
  94500     .0945  444336.382 -171705.92  3378.5452 -175084.46 616042.298 -440957.84 112.618173
  95000      .095  440202.269 -112476.56 3409.66914 -115886.23 552678.831  -436792.6 113.655638
  95500     .0955  423090.603 -47693.411 3361.55075 -51054.962 470784.014 -419729.05 112.051692
  96000      .096  398573.421 16726.3208 3244.65336 13481.6675   381847.1 -395328.77 108.155112
  96500     .0965  364859.867 80791.1751 3102.42925 77688.7459 284068.692 -361757.44 103.414308
  97000      .097  324730.851 143328.717 2910.97754  140417.74 181402.133 -321819.87 97.0325846
  97500     .0975  282587.246 201202.318 2630.96859 198571.349 81384.9279 -279956.28 87.6989529
  98000      .098  238641.085 254061.461  2365.4501 251696.011 -15420.376 -236275.64 78.8483365
  98500     .0985  189811.792 302903.178 2244.85794  300658.32 -113091.39 -187566.93  74.828598
  99000      .099  134046.214 350450.922  2248.1021  348202.82 -216404.71 -131798.11 74.9367366
  99500     .0995  77128.1863 391093.572 2336.74537 388756.826 -313965.39 -74791.441 77.8915123
 100000       0.1  16756.8325 426179.724 2496.94087 423682.783 -409422.89 -14259.892 83.2313624
 100500     .1005  -42798.031 453018.536  2639.2958 450379.241 -495816.57 45437.3268 87.9765266
 101000      .101  -98774.237  469631.56 2761.40187 466870.158  -568405.8 101535.639  92.046729
 101500     .1015  -150639.53 476497.987 2957.94434 473540.043 -627137.52 153597.478 98.5981448
 102000      .102  -201380.19 477199.534 3193.90651 474005.627 -678579.72 204574.095  106.46355
 102500     .1025   -250899.5 473174.427 3346.45526 469827.972 -724073.92 254245.952 111.548509
 103000      .103  -294995.64 460365.045 3438.24448 456926.801 -755360.69 298433.888 114.608149
 103500     .1035  -335648.93 441185.154 3502.94198 437682.212 -776834.08 339151.869 116.764733
 104000      .104  -368952.51 412927.935 3508.30224 409419.633 -781880.45 372460.815 116.943408
 104500     .1045  -393470.61 375487.563 3485.86257   372001.7 -768958.17 396956.473 116.195419
 105000      .105  -409481.27 330041.692 3481.83942 326559.852 -739522.97 412963.114 116.061314
 105500     .1055  -421245.91 281357.872 3447.97282 277909.899 -702603.79 424693.886 114.932427
 106000      .106  -427593.46 229791.229   3371.508 226419.721 -657384.69 430964.969   112.3836
 106500     .1065  -425873.95 174232.239 3317.07685 170915.162 -600106.19  429191.03 110.569228
 107000      .107  -417639.37 117188.515 3284.55962 113903.955 -534827.89 420923.933 109.485321
 107500     .1075  -400340.02 56568.5259 3246.79154 53321.7344 -456908.54 403586.807 108.226385
 108000      .108  -374119.93 -6861.6093 3237.73829 -10099.348 -367258.32  377357.67  107.92461
 108500     .1085  -340816.27 -71520.458 3291.11983 -74811.577 -269295.81 344107.385 109.703994
 109000      .109  -305175.79   -132403. 3347.89299 -135750.89 -172772.79  308523.68 111.596433
 109500     .1095  -265161.61  -190005.8 3367.42535 -193373.22 -75155.808 268529.032 112.247512
 110000       .11  -220432.72 -243771.06 3346.75398 -247117.82 23338.3487  223779.47 111.558466
 110500     .1105  -172201.74 -292477.37 3283.65199 -295761.02 120275.624 175485.394 109.455066
 111000      .111  -119080.77 -337725.55 3189.19816 -340914.75 218644.781 122269.971 106.306605
 111500     .1115  -62237.879 -378835.44 3115.14151 -381950.58 316597.558 65353.0201  103.83805
 112000      .112  -4654.5764  -414193.7 3079.34443 -417273.04 409539.121 7733.92081 102.644814
 112500     .1125  49478.9061 -440080.73 3009.13376 -443089.87 489559.641 -46469.772 100.304459
 113000      .113  102431.425 -458383.02  2876.1812  -461259.2 560814.442 -99555.244 95.8727066
 113500     .1135  152964.068 -468259.94 2711.15105 -470971.09  621224.01 -150252.92 90.3717016
 114000      .114   201101.74 -469933.46 2534.56837 -472468.03 671035.204 -198567.17 84.4856125
 114500     .1145  247764.681 -464935.19 2361.34294 -467296.54 712699.874 -245403.34 78.7114313
 115000      .115  291613.582 -453462.95 2244.44956  -455707.4  745076.53 -289369.13 74.8149853
 115500     .1155  329294.229 -434259.61 2188.74092 -436448.35 763553.838 -327105.49 72.9580308
 116000      .116  358228.888 -405698.15 2131.13263 -407829.28 763927.036 -356097.76 71.0377542
 116500     .1165  381061.799 -370689.48 2058.22719 -372747.71 751751.282 -379003.57 68.6075731
 117000      .117  396600.134 -328706.45 1983.91288 -330690.37 725306.586 -394616.22 66.1304294
 117500     .1175  406194.747 -281382.26 1892.68729 -283274.95 687577.009 -404302.06 63.0895762
 118000      .118  410708.554 -230497.24 1799.39155 -232296.63 641205.797 -408909.16 59.9797185
 118500     .1185  409441.714 -176938.11 1763.41361 -178701.52 586379.824  -407678.3 58.7804535
 119000      .119  399494.238 -119615.09 1773.88618 -121388.97 519109.326 -397720.35 59.1295395
 119500     .1195  380452.568 -58777.628 1772.93223 -60550.561 439230.197 -378679.64  59.097741
 120000       .12  355183.986 2512.61264 1751.29486 761.317782 352671.373 -353432.69 58.3764953
 120500     .1205  323328.412 64266.3069 1714.83816 62551.4688 259062.105 -321613.57 57.1612719
 121000      .121  287132.977 124194.923  1655.7022 122539.221 162938.055 -285477.28 55.1900733
 121500     .1215  247787.545 180865.057 1608.62776 179256.429 66922.4874 -246178.92 53.6209254
 122000      .122  205281.798 233554.714 1621.84702 231932.867 -28272.916 -203659.95 54.0615672
 122500     .1225   157367.51 283605.999 1669.12176 281936.877 -126238.49 -155698.39 55.6373921
 123000      .123  105415.518 329807.926 1709.40579  328098.52 -224392.41 -103706.11 56.9801931
 123500     .1235  51975.7389 370016.931 1745.87969 368271.051 -318041.19 -50229.859 58.1959895
 124000      .124  -2451.8463 404232.628 1781.67336 402450.955 -406684.47 4233.51969  59.389112
 124500     .1245  -55382.852 430659.297 1807.74582 428851.551 -486042.15 57190.5981 60.2581941
 125000      .125  -105679.09 448789.165 1849.81871 446939.346 -554468.25 107528.906 61.6606237
 125500     .1255  -153491.07 458807.149 1935.27182 456871.878 -612298.22 155426.345 64.5090605
 126000      .126  -200640.02  462699.58 2032.38149 460667.198 -663339.59 202672.397 67.7460496
 126500     .1265  -244917.54 459314.281 2112.80404 457201.477 -704231.82 247030.346 70.4268013
 127000      .127  -284779.69 448066.885 2181.19977 445885.685 -732846.58 286960.894  72.706659
  % % % % % %   Suspended simulation;  plot data space exhausted;  SPY SPACE is required.   LIMBUF =  340000.
  % % % % % %   Suspended simulation;  plot data space exhausted;  SPY SPACE is required.   LIMBUF =  340000.
  +++  Time-sharing disabled.   Send  user-keyed interrupt to silence alarm.
   Current values.  INDBUF  INDBEG  LIMBUF  MFLUSH  NUMDCD  KCARD1  KCARD2
                    339994      50  340000    1002      46       1      50
Plot timespan now in memory (in sec) = 8.49839970E-02   1.27477000E-01
   ++++  Begin plot-data copy from memory to disk.   MFLUSH, INDBUF, N4, Tbeg,  Tend = 1003  339994       1  -1.00000E+00
1.00000E+19
 127500     .1275  -319509.98 429318.025  2233.8917 427084.133   -748828. 321743.872 74.4630566
 128000      .128  -347303.53 402347.787 2264.78624    400083. -749651.32 349568.316 75.4928746
 128500     .1285  -367751.15 367663.741 2303.00653 365360.735 -735414.89  370054.16 76.7668844
 129000      .129  -381884.33 326696.385 2367.30817 324329.077 -708580.72 384251.642 78.9102722
 129500     .1295  -391407.07 281943.917 2422.92156 279520.995 -673350.99 393829.993  80.764052
 130000       .13   -394343.4 232706.209 2451.32038 230254.889 -627049.61  396794.72 81.7106794
 130500     .1305   -390520.3 179699.729 2463.66174 177236.068 -570220.03 392983.966 82.1220579
 131000      .131  -379593.99 123548.834 2459.15712 121089.677 -503142.82 382053.146 81.9719039
 131500     .1315    -360911.  64437.662 2440.22438 61997.4376 -425348.66 363351.227 81.3408128
 132000      .132  -335045.27 3457.06755 2436.40079 1020.66675 -338502.33 337481.668 81.2133597
 132500     .1325  -304122.49  -57175.56 2450.05051 -59625.611 -246946.93 306572.542 81.6683503
 133000      .133  -269812.53 -115247.89 2443.65591 -117691.54 -154564.64 272256.182 81.4551969
 133500     .1335  -230871.09 -171267.83 2409.22822 -173677.06 -59603.263  233280.32 80.3076075
 134000      .134  -188130.86 -224095.44 2360.78447 -226456.23 35964.5841 190491.643 78.6928157
 134500     .1345  -141671.56 -273394.13 2296.12578 -275690.25 131722.569 143967.684  76.537526
 135000      .135  -91794.151 -318833.75 2222.23492 -321055.99 227039.602  94016.386 74.0744973
 135500     .1355  -39758.598 -359537.17 2166.30934 -361703.48 319778.573 41924.9074 72.2103112
 136000      .136  11694.8676 -393419.56 2120.08377 -395539.65 405114.431 -9574.7839  70.669459
 136500     .1365  61365.0365 -419417.39 2051.75183 -421469.14 480782.424 -59313.285 68.3917278
 137000      .137   109993.56 -438334.55 1961.29353 -440295.85 548328.115 -108032.27  65.376451
 137500     .1375  156576.607 -449591.41 1861.35392 -451452.76 606168.015 -154715.25 62.0451306
 138000      .138  201048.504 -453682.18 1751.83266 -455434.01 654730.682 -199296.67  58.394422
 138500     .1385  242876.857 -450829.11 1647.52279 -452476.64  693705.97 -241229.33 54.9174264
 139000      .139  280791.896  -440882.9 1572.76967 -442455.67 721674.797 -279219.13 52.4256555
 139500     .1395  312349.062 -422563.94 1511.32997 -424075.27 734913.002 -310837.73 50.3776657
 140000       .14  337407.098 -396314.21 1436.16943 -397750.38 733721.311 -335970.93 47.8723143
 140500     .1405    356720.5 -363458.94 1350.57013 -364809.51 720179.443 -355369.93 45.0190043
 141000      .141  369929.817 -324388.75 1264.60976 -325653.36 694318.572 -368665.21 42.1536588
 141500     .1415  377514.907 -280415.37 1179.97941 -281595.35 657930.275 -376334.93 39.3326471
 142000      .142  379401.012 -232412.07 1114.02723 -233526.09 611813.079 -378286.98 37.1342411
 142500     .1425  374816.531 -180833.39 1082.89119 -181916.28 555649.919 -373733.64 36.0963729
 143000      .143  362296.548  -125234.9 1064.01723 -126298.92 487531.449 -361232.53 35.4672409
 143500     .1435   342957.11  -67145.55 1035.89069  -68181.44  410102.66 -341921.22 34.5296896
 144000      .144   317879.92 -8062.1953  1004.4309 -9066.6262 325942.115 -316875.49 33.4810301
 144500     .1445  287646.638 51031.1635 976.035436 50055.1281 236615.475  -286670.6 32.5345145
 145000      .145  253362.671 108616.741 952.666632 107664.074  144745.93   -252410. 31.7555544
 145500     .1455  215537.877 163691.403 952.557138 162738.846 51846.4746 -214585.32 31.7519046
 146000      .146  173876.787 215885.231 984.510558  214900.72 -42008.444 -172892.28 32.8170186
 146500     .1465  127951.795 265358.978 1023.73339 264335.244 -137407.18 -126928.06 34.1244464
 147000      .147  79697.9445 310446.509 1054.49345 309392.016 -230748.56 -78643.451 35.1497818
 147500     .1475    30342.23 350162.057 1083.47984 349078.577 -319819.83  -29258.75 36.1159947
 148000      .148  -18991.165  383701.89 1113.20426 382588.686 -402693.06 20104.3695 37.1068087
 148500     .1485  -67051.379 410145.219 1146.53644 408998.682  -477196.6 68197.9156 38.2178812
 149000      .149  -113202.71 429091.327 1201.18009 427890.147 -542294.04 114403.894 40.0393363
 149500     .1495  -157760.42 440979.472  1277.7656 439701.706 -598739.89 159038.187 42.5921868
 150000       .15   -200632.2 446282.626 1350.76782 444931.858 -646914.83  201982.97  45.025594
 150500     .1505  -239930.09 444035.035 1409.79548  442625.24 -683965.12 241339.883 46.9931827
 151000      .151  -274804.64 434223.517 1461.74633 432761.771 -709028.16  276266.39 48.7248775
 151500     .1515  -304328.75 416776.403 1507.14543 415269.258 -721105.16   305835.9 50.2381809
 152000      .152  -327779.25 391787.593 1550.55429 390237.038 -719566.84 329329.801 51.6851431
 152500     .1525  -345053.96 359797.628 1607.48383 358190.145 -704851.59 346661.443 53.5827943
 153000      .153  -357037.79 322228.871 1671.98284 320556.888 -679266.66 358709.769 55.7327614
 153500     .1535  -363727.81 279990.536 1721.46318 278269.073 -643718.34  365449.27 57.3821061
 154000      .154  -364010.65 233016.415 1751.73238 231264.683 -597027.07 365762.387 58.3910792
 154500     .1545  -357803.94 182110.101 1770.04362 180340.057 -539914.04 359573.981 59.0014541
 155000      .155  -344891.56 127845.279 1776.82645 126068.453 -472736.83 346668.382 59.2275485
 155500     .1555  -325432.38 71046.2519 1779.07129 69267.1806 -396478.63 327211.452 59.3023764
 156000      .156  -300179.41 12871.2304 1789.71728 11081.5132 -313050.64  301969.13 59.6572428
 156500     .1565  -270691.67 -44801.543 1798.67654 -46600.219 -225890.12 272490.343 59.9558846
 157000      .157  -237260.32  -101082.2 1787.84263 -102870.04 -136178.13 239048.166 59.5947545
 157500     .1575  -199681.46 -155632.19 1758.10431 -157390.29 -44049.278 201439.568  58.603477
 158000      .158  -158529.83  -207541.2 1716.65683 -209257.85 49011.3666 160246.486 57.2218944
 158500     .1585  -114229.83 -256215.19 1665.00019 -257880.19 141985.359 115894.829 55.5000062
 159000      .159  -67579.845 -300862.61   1612.559 -302475.17  233282.77 69192.4036 53.7519666
 159500     .1595  -19912.089  -340435.5 1568.93495 -342004.43 320523.406 21481.0241 52.2978316
 160000       .16  27014.4525 -373468.49  1521.3758 -374989.86  400482.94 -25493.077 50.7125266
 160500     .1605  72923.1713 -399758.54 1456.57604 -401215.12 472681.713 -71466.595 48.5525345
 161000      .161  117589.029 -419295.89 1379.43033 -420675.32 536884.923  -116209.6 45.9810111
 161500     .1615  160356.239  -431817.2 1296.87059 -433114.07 592173.438 -159059.37 43.2290196
 162000      .162  200714.148 -437348.35 1211.70832 -438560.05 638062.494 -199502.44 40.3902772
 162500     .1625  237873.182 -435792.08 1134.73648 -436926.82 673665.265 -236738.45 37.8245494
 163000      .163  270571.755 -426779.66 1071.41357 -427851.07 697351.413 -269500.34 35.7137858
 163500     .1635   297582.61 -409851.49 1007.59982 -410859.09 707434.099 -296575.01 33.5866605
 164000      .164  319151.882 -385801.87 934.362063 -386736.23 704953.751 -318217.52 31.1454021
 164500     .1645  335303.161  -355315.9 858.591219 -356174.49 690619.057 -334444.57 28.6197073
 165000      .165  345914.856  -319025.3  785.86402 -319811.16 664940.153 -345128.99 26.1954673
 165500     .1655  350956.676 -277710.49 719.594985 -278430.08 628667.163 -350237.08 23.9864995
 166000      .166  350199.101 -232032.77 670.217223 -232702.99  582231.87 -349528.88 22.3405741
 166500     .1665  342972.332 -182278.05  638.35778 -182916.41 525250.384 -342333.97 21.2785927
 167000      .167  329043.398 -128902.89 609.160155 -129512.05 457946.287 -328434.24 20.3053385
 167500     .1675  309405.583 -73355.393 576.872963 -73932.266 382760.976 -308828.71 19.2290988
 168000      .168  284666.895  -16736.99 548.366425 -17285.357 301403.886 -284118.53 18.2788808
 168500     .1685  255423.638 39856.6493 527.319703 39329.3296 215566.989 -254896.32 17.5773234
 169000      .169  222250.396 95379.0988 517.319324 94861.7795 126871.297 -221733.08 17.2439775
 169500     .1695  185514.704 148978.006 526.949803 148451.056 36536.6974 -184987.75 17.5649934
  % % % % % %   Suspended simulation;  plot data space exhausted;  SPY SPACE is required.   LIMBUF =  340000.
  % % % % % %   Suspended simulation;  plot data space exhausted;  SPY SPACE is required.   LIMBUF =  340000.
  +++  Time-sharing disabled.   Send  user-keyed interrupt to silence alarm.
   Current values.  INDBUF  INDBEG  LIMBUF  MFLUSH  NUMDCD  KCARD1  KCARD2
                    339994      50  340000    1003      46       1      50
Plot timespan now in memory (in sec) = 1.27476007E-01   1.69969000E-01
   ++++  Begin plot-data copy from memory to disk.   MFLUSH, INDBUF, N4, Tbeg,  Tend = 1004  339994       1  -1.00000E+00
1.00000E+19
 170000       .17  145148.718 200290.561 552.076066 199738.485 -55141.843 -144596.64 18.4025355
 170500     .1705  101776.511 248604.379 578.018842  248026.36 -146827.87 -101198.49 19.2672947
 171000      .171  56830.1626 292604.941 601.550902  292003.39 -235774.78 -56228.612 20.0516967
 171500     .1715  11263.6093 331459.045 628.579832 330830.465 -320195.44 -10635.029 20.9526611
 172000      .172  -33991.408 364380.271 661.073038 363719.198 -398371.68 34652.4807 22.0357679
 172500     .1725  -78164.023 390789.023  702.65035 390086.373 -468953.05 78866.6732 23.4216783
 173000      .173  -120777.18 410389.937 759.299615 409630.638 -531167.12 121536.478 25.3099872
 173500     .1735   -161760.3 423396.972 823.224051 422573.748 -585157.27  162583.52 27.4408017
 174000      .174  -200247.05 429544.713 881.141769 428663.571 -629791.76 201128.193 29.3713923
 174500     .1745  -235018.63 428323.878 932.158352  427391.72  -663342.5 235950.784 31.0719451
 175000      .175  -265358.44 419699.468 981.137045 418718.331 -685057.91 266339.577 32.7045682
 175500     .1755  -290646.38 403716.093 1029.15348 402686.939 -694362.48 291675.536 34.3051161
 176000      .176  -310521.67 380665.331 1080.26414 379585.067   -691187. 311601.934 36.0088046
 176500     .1765  -325008.39 351156.795 1138.07939 350018.715 -676165.18 326146.465 37.9359798
 177000      .177  -334420.97 316173.186 1192.92472 314980.262 -650594.16 335613.895 39.7641573
 177500     .1775  -338273.16 276106.261 1234.22206 274872.039 -614379.42 339507.379 41.1407355
 178000      .178  -336081.62 231326.215 1263.55614 230062.659 -567407.83 337345.174  42.118538
 178500     .1785  -327803.21 182538.274 1285.35732 181252.917 -510341.48 329088.566  42.845244
 179000      .179   -313537.2 130498.902 1300.97973 129197.922  -444036.1 314838.178  43.365991
 179500     .1795  -293648.54 76131.8743 1315.35063 74816.5237 -369780.42 294963.893  43.845021
 180000       .18  -268906.74  20633.997 1330.20454 19303.7925 -289540.74 270236.948 44.3401513
 180500     .1805  -240145.76 -34689.579   1335.683 -36025.262 -205456.18 241481.447 44.5227666
 181000      .181  -207438.97 -89203.277 1324.77691 -90528.054 -118235.69 208763.749 44.1592302
 181500     .1815  -171046.39 -142211.43 1301.42347 -143512.86 -28834.957 172347.814 43.3807823
 182000      .182  -131528.87 -192880.65 1270.04595 -194150.69 61351.7783 132798.914 42.3348651
 182500     .1825    -89565.5 -240394.59 1232.92874 -241627.52 150829.091 90798.4283 41.0976247
 183000      .183  -46023.098 -283894.68 1195.68445 -285090.37 237871.586 47218.7826 39.8561483
 183500     .1835  -2099.6479 -322332.06 1158.42122 -323490.49 320232.417 3258.06909 38.6140407
 184000      .184  41231.6086 -354838.14 1112.11679 -355950.26 396069.751 -40119.492 37.0705596
 184500     .1845  83686.7802 -381207.84 1053.28464 -382261.13 464894.622 -82633.496 35.1094882
 185000      .185  124759.586 -401162.09 987.426565 -402149.51 525921.674 -123772.16 32.9142188
 185500     .1855  163804.762 -414435.19 918.812787   -415354. 578239.947 -162885.95 30.6270929
 186000      .186  200125.957 -420820.69 850.560932 -421671.25 620946.644  -199275.4 28.3520311
 186500     .1865  232936.813 -420140.42 788.131671 -420928.56 653077.237 -232148.68 26.2710557
 187000      .187    261245.2 -412081.97 729.842901 -412811.81 673327.169 -260515.36 24.3280967
 187500     .1875  284538.602 -396710.82 667.680275 -397378.51 681249.427 -283870.92 22.2560092
 188000      .188  302869.357 -374625.94 600.786137 -375226.72 677495.295 -302268.57 20.0262046
 188500     .1885  316093.672  -346323.9 534.982393 -346858.89 662417.575 -315558.69 17.8327464
 189000      .189  324038.113 -312348.92 473.793056 -312822.71 636387.034 -323564.32 15.7931019
 189500     .1895   326524.94 -273272.39 420.471977 -273692.86 599797.326 -326104.47 14.0157326
 190000       .19  323328.197   -229656. 379.146469 -230035.14 552984.192 -322949.05 12.6382156
 190500     .1905  314129.293 -181927.03 346.023776 -182273.06 496056.328 -313783.27 11.5341259
 191000      .191   299219.35 -130943.57 313.839291 -131257.41 430162.923 -298905.51 10.4613097
 191500     .1915  279259.209  -77863.13 283.196336 -78146.326 357122.339 -278976.01 9.43987787
 192000      .192  254720.614  -23670.28  259.08175 -23929.362 278390.894 -254461.53 8.63605833
 192500     .1925  226057.618 30676.5348 243.740915 30432.7939 195381.084 -225813.88 8.12469718
 193000      .193  193703.027 84283.9661 239.864624 84044.1015 109419.061 -193463.16 7.99548746
 193500     .1935  157997.154 136386.073 249.426784 136136.646 21611.0815 -157747.73 8.31422612
 194000      .194  119254.484 186375.418  266.62279 186108.795 -67120.934 -118987.86 8.88742634
 194500     .1945  78377.5747 233272.311 284.879572 232987.431 -154894.74 -78092.695 9.49598574
 195000      .195  36397.6069 276051.767 305.467575   275746.3 -239654.16 -36092.139 10.1822525
 195500     .1955  -5879.3022 313934.906 332.038352 313602.867 -319814.21 6211.34054 11.0679451
 196000      .196  -47731.122 346271.901 365.616162 345906.285 -394003.02 48096.7377 12.1872054
 196500     .1965  -88525.106 372563.913 408.145956 372155.767 -461089.02  88933.252 13.6048652
 197000      .197   -127813.3  392548.96 459.419537  392089.54 -520362.26  128272.72 15.3139846
 197500     .1975  -165134.34  406103.85 512.388193 405591.461 -571238.19 165646.726 17.0796064
 198000      .198  -199562.81 412817.714 561.598455 412256.115 -612380.53 200124.412 18.7199485
 198500     .1985  -230264.32 412408.295 608.852892 411799.442 -642672.62 230873.174 20.2950964
 199000      .199  -256671.37 404851.541 656.760672 404194.781 -661522.91 257328.129 21.8920224
 199500     .1995  -278375.35 390294.857 705.809129 389589.048 -668670.21 279081.158  23.526971
 200000       0.2  -295119.78 369050.015 757.552796 368292.462 -664169.79 295877.329 25.2517599
 200500     .2005  -306895.38 341685.666 810.281234 340875.385 -648581.04 307705.658 27.0093745
 201000      .201  -313620.19 308801.254 856.935567 307944.318 -622421.45 314477.128 28.5645189
 201500     .2015  -314887.86 270749.948  893.90646 269856.042 -585637.81 315781.771  29.796882
 202000      .202  -310510.27 228054.893 923.819263 227131.074 -538565.16 311434.091 30.7939754
 202500     .2025   -300559.6 181421.719 948.946259 180472.773 -481981.32 301508.546  31.631542
 203000      .203   -285281.1 131673.695 970.109349 130703.586  -416954.8 286251.213 32.3369783
 203500     .2035  -265077.13 79727.9729 988.968003 78739.0049  -344805.1 266066.097 32.9656001
 204000      .204  -240569.81 26673.4821 1003.18596 25670.2961  -267243.3    241573. 33.4395319
 204500     .2045  -212201.67 -26544.307 1006.81144 -27551.119 -185657.36 213208.482 33.5603815
 205000      .205  -180182.76 -79232.876  998.55224 -80231.428 -100949.88 181181.309 33.2850747
 205500     .2055  -144950.94 -130591.93 982.019501 -131573.95 -14359.011 145932.956 32.7339834
 206000      .206  -107130.31 -179763.14 959.658272  -180722.8 72632.8284 108089.968 31.9886091
 206500     .2065  -67453.974 -225879.38 933.088181 -226812.47  158425.41 68387.0626 31.1029394
 207000      .207  -26753.643 -268079.56 904.186272 -268983.75 241325.918 27657.8293 30.1395424
 207500     .2075  14034.7989 -305463.64 870.480771 -306334.13 319498.444 -13164.318 29.0160257
 208000      .208  54285.4689 -337435.26 827.598066 -338262.85 391720.725 -53457.871 27.5866022
 208500     .2085  93563.4837  -363652.6 776.363006 -364428.96 457216.083 -92787.121 25.8787669
 209000      .209  131274.879 -383745.64 721.017318 -384466.66 515020.522 -130553.86 24.0339106
 209500     .2095  166745.085 -397380.69 664.116437 -398044.81 564125.777 -166080.97 22.1372146
 210000       .21  199288.379 -404296.38 607.835902 -404904.22 603584.758 -198680.54 20.2611967
 210500     .2105  228196.581 -404288.03 553.806761 -404841.84 632484.615 -227642.77 18.4602254
 211000      .211  252800.963 -397209.21  499.33557 -397708.54 650010.172 -252301.63  16.644519
 211500     .2115  272833.047 -383279.59 441.370383 -383720.96 656112.637 -272391.68 14.7123461
 212000      .212  288178.926 -362911.61 382.013812 -363293.62 651090.532 -287796.91 12.7337937
  % % % % % %   Suspended simulation;  plot data space exhausted;  SPY SPACE is required.   LIMBUF =  340000.
  % % % % % %   Suspended simulation;  plot data space exhausted;  SPY SPACE is required.   LIMBUF =  340000.
  +++  Time-sharing disabled.   Send  user-keyed interrupt to silence alarm.
   Current values.  INDBUF  INDBEG  LIMBUF  MFLUSH  NUMDCD  KCARD1  KCARD2
                    339994      50  340000    1004      46       1      50
Plot timespan now in memory (in sec) = 1.69967994E-01   2.12461000E-01
   ++++  Begin plot-data copy from memory to disk.   MFLUSH, INDBUF, N4, Tbeg,  Tend = 1005  339994       1  -1.00000E+00
1.00000E+19
 212500     .2125  298636.031 -336506.97 325.326546  -336832.3 635143.006  -298310.7 10.8442182
 213000      .213   303994.86 -304509.23  273.44727 -304782.68 608504.089 -303721.41   9.114909
 213500     .2135  304096.503 -267428.76 228.376235 -267657.13  571525.26 -303868.13 7.61254118
 214000      .214  298794.246 -225792.93  190.74562 -225983.68 524587.179  -298603.5 6.35818732
 214500     .2145  288079.707 -180203.06 157.266457 -180360.33 468282.767 -287922.44 5.24221522
 215000      .215  272339.276 -131564.96 125.608706 -131690.57 403904.236 -272213.67 4.18695685
 215500     .2155  252036.992 -80843.452 98.1444802 -80941.596 332880.444 -251938.85 3.27148267
 216000      .216  227560.854 -28931.663 77.9547458 -29009.618 256492.517  -227482.9 2.59849153
 216500     .2165   199293.08 23311.7742 66.2521563  23245.522 175981.305 -199226.83 2.20840521
 217000      .217   167651.66 75043.9126 64.1927014 74979.7199 92607.7474 -167587.47 2.13975671
 217500     .2175  133036.259  125505.03 70.9139301 125434.116 7531.22899 -132965.35 2.36379767
 218000      .218  96006.2047 173903.716 82.3872333 173821.329 -77897.511 -95923.817 2.74624111
 218500     .2185  57411.3408 219279.602 96.6217193  219182.98 -161868.26 -57314.719 3.22072398
 219000      .219  18060.1096 260764.104 115.652052 260648.452 -242703.99 -17944.458  3.8550684
 219500     .2195  -21362.614  297646.91 141.297537 297505.612 -319009.52 21503.9119 4.70991791
 220000       .22  -60234.336 329342.136 173.810992 329168.325 -389576.47 60408.1465 5.79369973
 220500     .2205   -97969.03 355370.591  213.36205 355157.229 -453339.62 98182.3918 7.11206832
 221000      .221  -134062.49 375417.571 257.740227  375159.83 -509480.06 134320.234 8.59134091
 221500     .2215  -167880.96  389168.21  302.58176 388865.628 -557049.17 168183.538 10.0860587
 222000      .222  -198647.67 396258.185 346.371411 395911.814 -594905.86 198994.042 11.5457137
 222500     .2225  -225741.67  396503.95  390.84343 396113.106 -622245.62 226132.509 13.0281143
 223000      .223  -248722.72  389916.22 436.932069 389479.288 -638638.94 249159.653 14.5644023
 223500     .2235  -267268.98 376656.655 484.445218  376172.21 -643925.64 267753.426 16.1481739
 224000      .224  -281162.82 357020.324 532.990792 356487.333 -638183.14  281695.81 17.7663597
 224500     .2245  -290301.65 331460.207 579.727977 330880.479 -621761.85 290881.376 19.3242659
 225000      .225   -294477.1 300395.008 620.773962 299774.234  -594872.1  295097.87 20.6924654
 225500     .2255  -293452.59  264232.66 655.581479 263577.079 -557685.25 294108.167  21.852716
 226000      .226  -287198.97 223546.662 686.030071 222860.632 -510745.63 287884.998  22.867669
 226500     .2265  -275875.34 179052.994 712.883386  178340.11 -454928.34 276588.225 23.7627795
 227000      .227  -259758.84 131554.846 736.205649 130818.641 -391313.69 260495.048 24.5401883
 227500     .2275   -239238.8 81931.0049 755.644817 81175.3601 -321169.81 239994.445 25.1881606
 228000      .228  -214778.49 31118.0381 768.550215 30349.4878 -245896.52 215547.036 25.6183405
 228500     .2285  -186713.54 -20076.193 772.262586 -20848.456 -166637.34   187485.8 25.7420862
 229000      .229  -155389.71 -70892.235 767.575752  -71659.81 -84497.472 156157.282 25.5858584
 229500     .2295  -121327.54 -120496.66 756.858861 -121253.52  -830.8728 122084.395 25.2286287
 230000       .23  -85174.111 -168021.57 741.217645 -168762.79 82847.4642 85915.3282 24.7072548
 230500     .2305  -47628.758 -212622.11 721.345542 -213343.45  164993.35 48350.1038 24.0448514
 231000      .231  -9444.8333 -253473.48 697.211627 -254170.69 244028.643 10142.0449 23.2403876
 231500     .2315  28654.7402 -289824.77 666.769498 -290491.54 318479.508 -27987.971 22.2256499
 232000      .232  66130.7854 -321145.49  628.79189 -321774.29  387276.28 -65501.993 20.9597297
 232500     .2325  102456.046 -347003.47 585.267397 -347588.74 449459.518 -101870.78 19.5089132
 233000      .233  137011.171 -366982.41 538.917177 -367521.33 503993.584 -136472.25 17.9639059
 233500     .2335  169145.474 -380720.29 491.151394 -381211.45 549865.768 -168654.32 16.3717131
 234000      .234  198243.042 -387954.82 443.071232 -388397.89 586197.864 -197799.97 14.7690411
 234500     .2345  223713.074 -388501.93 394.712377 -388896.65 612215.009 -223318.36 13.1570792
 235000      .235  245103.622 -382331.59 344.466271 -382676.06 627435.215 -244759.16  11.482209
 235500     .2355  262185.343 -369651.85 292.126083 -369943.98 631837.194 -261893.22 9.73753611
 236000      .236  274765.689 -350761.96 240.203992 -351002.16 625527.647 -274525.48 8.00679972
 236500     .2365   282627.53 -325995.27 191.191043 -326186.47 608622.804 -282436.34 6.37303478
 237000      .237  285588.978 -295748.67 146.305428 -295894.98 581337.652 -285442.67 4.87684761
 237500     .2375  283548.883 -260507.26 106.421349 -260613.68 544056.144 -283442.46 3.54737828
 238000      .238  276472.567 -220811.22 71.0754624 -220882.29 497283.782 -276401.49 2.36918208
 238500     .2385   264513.45 -177341.16 38.6198339 -177379.78  441854.61 -264474.83  1.2873278
 239000      .239  248021.366 -130936.81 9.18209999 -130945.99 378958.177 -248012.18     .30607
 239500     .2395   227360.24 -82446.712  -15.00405 -82431.708 309806.952 -227375.24 -.50013501
 240000       .24   202874.65 -32690.162 -32.294252 -32657.867 235564.812 -202906.94 -1.0764751
 240500     .2405  174943.071 17518.5639  -42.17852 17560.7425 157424.507 -174985.25 -1.4059507
 241000      .241  143998.474 67364.0416 -44.574103 67408.6157 76634.4326 -144043.05 -1.4858034
 241500     .2415   110518.92 116057.785 -40.841684 116098.626 -5538.8644 -110559.76 -1.3613895
 242000      .242  75140.2429 162750.106 -32.972851 162783.079 -87609.863 -75173.216  -1.099095
 242500     .2425   38600.612 206561.943 -20.959698 206582.903 -167961.33 -38621.572 -.69865659
 243000      .243   1578.9549 246715.942  -3.288222  246719.23 -245136.99 -1582.2431  -.1096074
 243500     .2435  -35316.473 282553.412 20.6421934  282532.77 -317869.88  35337.115 .688073112
 244000      .244  -71498.997 313505.407 50.5318417 313454.875  -385004.4 71549.5293 1.68439472
 244500     .2445  -106401.56 339095.055  85.592425 339009.463 -445496.62 106487.156 2.85308083
 245000      .245  -139468.29 358942.453 123.689359 358818.763 -498410.74 139591.978 4.12297863
 245500     .2455  -170059.84 372677.696 162.669977 372515.026 -542737.53 170222.505 5.42233256
 246000      .246   -197548.9 380000.671 202.483821 379798.188 -577549.57 197751.381 6.74946069
 246500     .2465  -221446.19 380776.823 244.063761 380532.759 -602223.01  221690.25 8.13545871
 247000      .247  -241389.24 375029.625  287.33201 374742.293 -616418.87 241676.575 9.57773368
 247500     .2475  -257092.13 362900.445 331.586765 362568.858 -619992.57 257423.712 11.0528922
 248000      .248  -268349.99 344649.714 375.610918 344274.103 -612999.71 268725.605 12.5203639
 248500     .2485  -275003.42 320629.614 417.098484 320212.515 -595633.03 275420.514 13.9032828
 249000      .249  -276866.08 291205.017 454.310909 290750.706 -568071.09 277320.389  15.143697
 249500     .2495  -273835.21 256823.054 487.577761 256335.476 -530658.27 274322.791  16.252592
 250000       .25  -265974.58 218070.394  517.76107 217552.633 -484044.97 266492.339 17.2587023
 250500     .2505   -253480.5 175644.156 544.757729 175099.398 -429124.65 254025.255  18.158591
 251000      .251  -236628.77 130303.998 568.072897 129735.925 -366932.76  237196.84 18.9357632
 251500     .2515  -215775.72 82869.3687 586.671939 82282.6968 -298645.09 216362.391 19.5557313
 252000      .252  -191296.19 34165.5088 598.756935 33566.7518  -225461.7 191894.945 19.9585645
 252500     .2525  -163537.72 -15035.922 603.552246 -15639.474  -148501.8 164141.273 20.1184082
 253000      .253  -132928.71 -63945.256 602.150461 -64547.406 -68983.455 133530.861  20.071682
 253500     .2535  -100021.76 -111726.25 595.763596 -112322.02 11704.4924 100617.523 19.8587865
 254000      .254  -65442.705 -157535.93 584.727409 -158120.66 92093.2256 66027.4325 19.4909136
 254500     .2545  -29840.347 -200568.03 569.103736 -201137.14 170727.687 30409.4505 18.9701245
  % % % % % %   Suspended simulation;  plot data space exhausted;  SPY SPACE is required.   LIMBUF =  340000.
  % % % % % %   Suspended simulation;  plot data space exhausted;  SPY SPACE is required.   LIMBUF =  340000.
  +++  Time-sharing disabled.   Send  user-keyed interrupt to silence alarm.
   Current values.  INDBUF  INDBEG  LIMBUF  MFLUSH  NUMDCD  KCARD1  KCARD2
                    339994      50  340000    1005      46       1      50
Plot timespan now in memory (in sec) = 2.12459996E-01   2.54953000E-01
   ++++  Begin plot-data copy from memory to disk.   MFLUSH, INDBUF, N4, Tbeg,  Tend = 1006  339994       1  -1.00000E+00
1.00000E+19
 255000      .255  6119.14333 -240055.63 548.361112 -240603.99 246174.777 -5570.7822 18.2787037
 255500     .2555  41828.2049 -275335.31 521.515374 -275856.82 317163.514 -41306.689 17.3838458
 256000      .256  76751.6332 -305874.12 488.863755 -306362.98 382625.751 -76262.769 16.2954585
 256500     .2565  110327.258 -331195.89 452.211172  -331648.1 441523.146 -109875.05 15.0737057
 257000      .257  141950.186 -350866.08 413.095827 -351279.18 492816.267 -141537.09 13.7698609
 257500     .2575  171029.408 -364529.17 372.252866 -364901.42 535558.576 -170657.16 12.4084289
 258000      .258  197025.386 -371934.72 330.136721 -372264.86  568960.11 -196695.25 11.0045574
 258500     .2585  219459.595 -372935.17 286.536826 -373221.71 592394.764 -219173.06 9.55122754
 259000      .259  237986.361 -367542.52 241.055039 -367783.57 605528.879 -237745.31 8.03516798
 259500     .2595  252370.832  -355917.1 194.644874 -356111.75 608287.936 -252176.19 6.48816245
 260000       .26  262398.507 -338291.54 149.309306 -338440.85 600690.048  -262249.2 4.97697688
 260500     .2605  267873.519 -314958.27 106.460368 -315064.74 582831.793 -267767.06 3.54867892
 261000      .261  268669.372 -286296.85 66.7671196 -286363.62 554966.226  -268602.6 2.22557065
 261500     .2615  264746.752  -252778.1 30.5419651 -252808.64 517524.852 -264716.21  1.0180655
 262000      .262  256163.854 -214958.11 -2.6027946 -214955.51 471121.967 -256166.46 -.08675982
 262500     .2625  243129.257  -173518.3 -33.000792  -173485.3 416647.557 -243162.26 -1.1000264
 263000      .263  225947.257 -129222.06 -59.686712 -129162.38 355169.319 -226006.94 -1.9895571
 263500     .2635  204936.736 -82842.088 -81.101651 -82760.987 287778.825 -205017.84 -2.7033884
 264000      .264  180435.645 -35150.176 -96.481102 -35053.695 215585.821 -180532.13 -3.2160367
 264500     .2645  152840.397 13063.8226 -105.71793 13169.5405 139776.575 -152946.12 -3.5239308
 265000      .265  122605.288 61002.6885 -109.12462 61111.8131 61602.5997 -122714.41 -3.6374872
 265500     .2655  90254.5372 107863.341 -107.65161 107970.992 -17608.804 -90362.189  -3.588387
 266000      .266  56411.0287 152812.099  -101.9424 152914.041  -96401.07 -56512.971 -3.3980801
 266500     .2665  21720.8835  195043.66 -91.441511 195135.102 -173322.78 -21812.325 -3.0480504
 267000      .267  -13213.498 233839.653 -75.367166  233915.02 -247053.15 13138.1308 -2.5122389
 267500     .2675  -47822.327 268569.085  -53.77941 268622.865 -316391.41 47768.5478  -1.792647
 268000      .268  -81538.146 298669.721 -27.258762  298696.98 -380207.87 81510.8877  -.9086254
 268500     .2685  -113804.98  323659.91 3.19889529 323656.711 -437464.89 113808.183 .106629843
 269000      .269  -144059.73 343125.802 36.1382968 343089.663 -487185.54 144095.873 1.20460989
 269500     .2695  -171723.46 356704.926 70.6771678 356634.249 -528428.39 171794.142 2.35590559
 270000       .27  -196280.73 364142.904 107.022083 364035.882 -560423.63  196387.75 3.56740278
 270500     .2705  -217325.04 365328.437 145.356563  365183.08 -582653.48 217470.395 4.84521876
 271000      .271  -234536.31  360276.93 185.108467 360091.822 -594813.24 234721.423 6.17028224
 271500     .2715  -247653.69 349105.866 225.353662 348880.512 -596759.56 247879.045 7.51178875
 272000      .272  -256480.94 332036.707 264.820134 331771.887 -588517.65 256745.763  8.8273378
 272500     .2725  -260857.33 309364.426 302.029655 309062.396 -570221.75 261159.355 10.0676552
 273000      .273  -260661.47 281445.126  336.31077 281108.815  -542106.6 260997.782  11.210359
 273500     .2735   -255880.2 248740.238   367.9464 248372.292 -504620.44  256248.15   12.26488
 274000      .274  -246628.33 211826.889 397.033792 211429.855 -458455.22 247025.369 13.2344597
 274500     .2745  -233112.35 171365.552 423.061026 170942.491  -404477.9 233535.413 14.1020342
 275000      .275  -215602.79 128070.941 445.307573 127625.633 -343673.73 216048.097 14.8435858
 275500     .2755  -194428.65 82702.2972 462.787368 82239.5098 -277130.95  194891.44 15.4262456
 276000      .276  -169939.84 36022.3528 474.557581 35547.7953 -205962.19 170414.396  15.818586
 276500     .2765  -142519.36 -11208.168 480.617987 -11688.786 -131311.19 142999.976 16.0205996
 277000      .277  -112635.81 -58197.829 481.727884 -58679.557 -54437.978 113117.535 16.0575961
 277500     .2775   -80840.68 -104130.11 478.329823 -104608.44 23289.4256 81319.0097 15.9443274
 278000      .278  -47722.971  -148201.8 470.383586 -148672.18 100478.828 48193.3541 15.6794529
 278500     .2785  -13883.557 -189647.75 457.706393 -190105.46 175764.197 14341.2638 15.2568798
 279000      .279  20079.9751 -227755.04 439.899565 -228194.94 247835.015 -19640.076 14.6633188
 279500     .2795  53610.1754 -261900.36 416.788167 -262317.15 315510.535 -53193.387 13.8929389
 280000       .28  86168.0697 -291541.38 389.138982 -291930.51 377709.445 -85778.931 12.9712994
 280500     .2805  117193.936 -316187.48 358.210998 -316545.69  433381.42 -116835.72 11.9403666
 281000      .281   146122.85 -335408.75  324.81584 -335733.57 481531.603 -145798.03 10.8271947
 281500     .2815  172428.881 -348867.58 289.348792 -349156.93 521296.464 -172139.53 9.64495972
 282000      .282  195642.322 -356329.57 252.044166 -356581.62 551971.895 -195390.28 8.40147221
 282500     .2825  215367.066 -357673.22 212.930479 -357886.15 573040.288 -215154.14 7.09768262
 283000      .283  231305.086  -352911.1 172.357516 -353083.46 584216.185 -231132.73 5.74525054
 283500     .2835  243222.259 -342162.55 131.497283 -342294.05 585384.813 -243090.76 4.38324277
 284000      .284  250915.658 -325621.69 91.7111203  -325713.4 576537.343 -250823.95 3.05703734
 284500     .2845  254231.541 -303561.37  53.798807 -303615.17 557792.911 -254177.74 1.79329357
 285000      .285  253098.613  -276350.9 18.1678443 -276369.07 529449.512 -253080.45 .605594811
 285500     .2855  247532.364  -244450.7 -14.992557 -244435.71 491983.065 -247547.36 -.49975191
 286000      .286  237647.712 -208414.48  -45.69005 -208368.79 446062.188  -237693.4 -1.5230017
 286500     .2865  223664.072 -168890.73 -73.560399 -168817.17 392554.806 -223737.63 -2.4520133
 287000      .287  205859.161 -126581.06 -97.590523 -126483.47 332440.218 -205956.75 -3.2530174
 287500     .2875  184539.286 -82206.821 -116.84606 -82089.975 266746.107 -184656.13 -3.8948687
 288000      .288  160054.681 -36509.457 -131.00681  -36378.45 196564.138 -160185.69 -4.3668937
 288500     .2885  132818.658 9743.39227 -140.11287 9883.50514 123075.266 -132958.77 -4.6704289
 289000      .289  103301.113 55771.8274 -144.45236 55916.2798 47529.2852 -103445.56 -4.8150785
 289500     .2895   72035.211 100784.134 -144.45189 100928.585 -28748.923 -72179.663 -4.8150629
 290000       .29  39604.6586 143987.887 -140.11337 144128.001 -104383.23 -39744.772 -4.6704456
 290500     .2905  6592.45269  184634.22 -130.94836 184765.169 -178041.77  -6723.401 -4.3649452
 291000      .291  -26443.039 222043.689 -116.72031  222160.41 -248486.73 26326.3187  -3.890677
 291500     .2915  -58953.273 255601.709 -97.765879 255699.475 -314554.98  58855.507 -3.2588626
 292000      .292  -90389.915 284754.588 -74.705056 284829.293  -375144.5   90315.21 -2.4901685
 292500     .2925  -120213.83  309019.76 -48.367262 309068.127 -429233.59 120165.464 -1.6122421
 293000      .293  -147889.99  327980.35 -19.593065 327999.943 -475870.34 147870.397 -.65310216
 293500     .2935  -172909.38 341297.789 11.2757392 341286.514 -514207.17 172920.655 .375857973
 294000      .294  -194834.55 348745.802 44.2742392 348701.528 -543580.35 194878.823 1.47580797
 294500     .2945  -213311.25 350220.098 79.1190176 350140.979 -563531.34 213390.364 2.63730059
 295000      .295  -228048.56 345722.166 115.074134 345607.092 -573770.73 228163.634 3.83580448
 295500     .2955  -238810.85  335349.39 151.234699 335198.155 -574160.24 238962.087 5.04115663
 296000      .296  -245420.01 319292.793 186.582002 319106.211  -564712.8 245606.589 6.21940007
 296500     .2965  -247746.78 297821.533 220.251476 297601.282 -545568.32 247967.035 7.34171585
 297000      .297  -245732.64  271290.22 251.945825 271038.274 -517022.86 245984.582 8.39819417
  % % % % % %   Suspended simulation;  plot data space exhausted;  SPY SPACE is required.   LIMBUF =  340000.
  % % % % % %   Suspended simulation;  plot data space exhausted;  SPY SPACE is required.   LIMBUF =  340000.
  +++  Time-sharing disabled.   Send  user-keyed interrupt to silence alarm.
   Current values.  INDBUF  INDBEG  LIMBUF  MFLUSH  NUMDCD  KCARD1  KCARD2
                    339994      50  340000    1006      46       1      50
Plot timespan now in memory (in sec) = 2.54952013E-01   2.97445000E-01
   ++++  Begin plot-data copy from memory to disk.   MFLUSH, INDBUF, N4, Tbeg,  Tend = 1007  339994       1  -1.00000E+00
1.00000E+19
 297500     .2975  -239421.11 240156.947 281.656573  239875.29 -479578.05 239702.762 9.38855243
 298000      .298  -228953.05 204975.231 309.056419 204666.175 -433928.28 229262.104 10.3018806
 298500     .2985  -214538.89 166366.537 333.509429 166033.028 -380905.43 214872.403  11.116981
 299000      .299  -196447.14 125004.013 354.316663 124649.696 -321451.15 196801.457 11.8105554
 299500     .2995  -174996.07  81598.503 370.767308 81227.7357 -256594.57 175366.833 12.3589103
 300000       0.3  -150541.03 36877.4793 382.445924 36495.0334 -187418.51 150923.473 12.7481975
 300500     .3005  -123492.24 -8411.0383 389.517094 -8800.5554  -115081.2 123881.753 12.9839031
 301000      .301  -94330.838  -53492.06 392.328803 -53884.388 -40838.778 94723.1666 13.0776268
 301500     .3015  -63590.335 -97581.922 390.916908 -97972.839 33991.5867  63981.252 13.0305636
 302000      .302  -31824.623  -139918.2  385.11296 -140303.31 108093.573 32209.7364 12.8370987
 302500     .3025  405.425602 -179775.07 374.735903 -180149.81 180180.498 -30.689699 12.4911968
 303000      .303   32546.794   -216480. 359.652017 -216839.66 249026.799 -32187.142 11.9884006
 303500     .3035  64065.4755 -249429.68 340.090096 -249769.77 313495.158 -63725.385 11.3363365
 304000      .304  94430.0259 -278081.68 316.784461 -278398.47 372511.708 -94113.241  10.559482
 304500     .3045  123104.877  -301949.7 290.506481 -302240.21 425054.578 -122814.37 9.68354937
 305000      .305  149574.198 -320620.55 261.694498 -320882.24 470194.745  -149312.5 8.72314992
 305500     .3055   173369.69 -333775.14 230.619704 -334005.76 507144.826 -173139.07 7.68732346
 306000      .306  194079.913 -341194.28 197.525239 -341391.81 535274.197 -193882.39 6.58417464
 306500     .3065  211363.137 -342767.86 162.707445 -342930.56 554130.994 -211200.43  5.4235815
 307000      .307  224949.136 -338496.41 126.813773 -338623.22 563445.545 -224822.32 4.22712577
 307500     .3075  234618.727 -328472.24  90.850878  -328563.1 563090.972 -234527.88  3.0283626
 308000      .308  240198.607 -312868.92 55.6951794 -312924.62 553067.528 -240142.91 1.85650598
 308500     .3085  241581.532 -291949.46  21.853158 -291971.31 533530.987 -241559.68 .728438601
 309000      .309  238742.585 -266072.68 -10.343255 -266062.34 504815.263 -238752.93 -.34477516
 309500     .3095  231739.633 -235686.71 -40.635881 -235646.08 467426.347 -231780.27 -1.3545294
 310000       .31  220717.611 -201327.02 -68.727737 -201258.29  422044.63 -220786.34 -2.2909246
 310500     .3105  205896.932 -163602.76 -94.020451 -163508.74 369499.694 -205990.95  -3.134015
 311000      .311  187546.978 -123168.87 -115.71963 -123053.15 310715.846  -187662.7  -3.857321
 311500     .3115  165978.791  -80710.73  -133.2975 -80577.433 246689.521 -166112.09 -4.4432499
 312000      .312  141557.873 -36945.055 -146.60696 -36798.448 178502.928 -141704.48 -4.8868985
 312500     .3125   114707.92 7384.65129 -155.67653 7540.32783 107323.268  -114863.6 -5.1892178
 313000      .313  85903.4348 51520.8988 -160.62939 51681.5281 34382.5361 -86064.064  -5.354313
 313500     .3135  55665.3816 94700.0983 -161.53687 94861.6352 -39034.717 -55826.919 -5.3845625
 314000      .314  24539.4354 136173.386 -158.20543 136331.591 -111633.95 -24697.641 -5.2735145
 314500     .3145   -6932.348 175234.435 -150.36792 175384.803 -182166.78 6781.98012  -5.012264
 315000      .315  -38218.105 211231.333 -138.08359 211369.417 -249449.44 38080.0214 -4.6027864
 315500     .3155  -68787.565 243564.898 -121.74298 243686.641 -312352.46 68665.8224 -4.0580994
 316000      .316  -98114.929  271693.98 -101.86909 271795.849 -369808.91 98013.0595 -3.3956362
 316500     .3165  -125687.46 295144.026 -79.042009 295223.068 -420831.49 125608.422 -2.6347336
 317000      .317   -151012.7 313511.636 -53.727053 313565.363 -464524.34 150958.977 -1.7909018
 317500     .3175  -173641.82 326481.446 -26.124312 326507.571 -500123.26 173615.693 -.87081039
 318000      .318  -193191.72 333843.409 3.58027869 333839.829 -527035.13   193195.3 .119342623
 318500     .3185   -209344.5 335492.665 34.8966531 335457.769 -544837.16 209379.395 1.16322177
 319000      .319  -221836.67 331419.324 67.1077296 331352.216   -553256.  221903.78 2.23692432
 319500     .3195  -230460.38 321705.978   99.44755 321606.531 -552166.36  230559.83 3.31491833
 320000       .32  -235065.86 306524.812 131.177012 306393.635 -541590.67 235197.037 4.37256706
 320500     .3205  -235564.98 286133.273 161.763347 285971.509 -521698.26 235726.747 5.39211156
 321000      .321  -231948.34 260880.812 190.956103 260689.856 -492829.16 232139.299 6.36520342
 321500     .3215  -224295.02 231211.533 218.499087 230993.034 -455506.55 224513.518 7.28330291
 322000      .322  -212760.86 197650.299 243.897448 197406.401 -410411.16  213004.76 8.12991494
 322500     .3225  -197562.04 160783.442 266.544554 160516.898 -358345.48 197828.585 8.88481847
 323000      .323  -178970.01 121247.782 285.868311 120961.913 -300217.79 179255.881 9.52894368
 323500     .3235  -157305.42 79717.8156 301.407206 79416.4084 -237023.24 157606.832 10.0469069
 324000      .324  -132936.32 36895.2863 312.976154 36582.3101  -169831.6 133249.293 10.4325385
 324500     .3245  -106286.77 -6491.4736 320.662326 -6812.1359 -99795.294  106607.43 10.6887442
 325000      .325  -77834.712 -49694.522 324.521286 -50019.044 -28140.189 78159.2328 10.8173762
 325500     .3255  -48091.491 -91967.009 324.424064 -92291.434 43875.5188 48415.9147 10.8141355
 326000      .326  -17582.293 -132584.03 320.204848 -132904.24 115001.738 17902.4982 10.6734949
 326500     .3265  13162.8862 -170854.93 311.771509 -171166.71  184017.82 -12851.115 10.3923836
 327000      .327  43619.5251 -206136.98 299.180872 -206436.16 249756.502 -43320.344 9.97269574
 327500     .3275  73271.3543 -237842.87 282.774082 -238125.65 311114.229  -72988.58 9.42580273
 328000      .328  101605.725 -265440.13 263.097049 -265703.23 367045.857 -101342.63 8.76990164
 328500     .3285  128121.304 -288457.61 240.603308 -288698.21 416578.913  -127880.7 8.02011026
 329000      .329    152349.5 -306502.25 215.573303 -306717.82  458851.75 -152133.93 7.18577675
 329500     .3295   173870.12 -319271.54 188.263521  -319459.8 493141.661 -173681.86 6.27545071
 330000       .33  192317.885 -326558.16 158.986472 -326717.15 518876.048  -192158.9 5.29954907
[...]
             Random switching times for simulation number  296  :
                                   1  5.5801796E-02    2  5.4258744E-02    3  5.4176209E-02    4  1.0357663E-02    5  6.9853327E-01
                                   6  6.9869586E-01    7  6.9958808E-01

                   668292.863 -679738.78 -744986.47 .1141416E7 -.108315E7 -.122544E7  2429.7041
Times of maxima :     .018288    .714072    .003365    .004702    .006545    .002864    .713837
             Random switching times for simulation number  297  :
                                   1  5.6055230E-02    2  5.4163897E-02    3  5.4929744E-02    4  9.5205641E-03    5  7.0046628E-01
                                   6  6.9931070E-01    7  6.9985771E-01

                   664558.057 -637696.52 -744986.47 .1141416E7 -.108315E7 -.122544E7 2403.03418
Times of maxima :     .018273    .713943    .003365    .004702    .006545    .002864     .01444
             Random switching times for simulation number  298  :
                                   1  5.4402657E-02    2  5.4726493E-02    3  5.5809066E-02    4  1.1302849E-02    5  6.9999931E-01
                                   6  6.9999918E-01    7  7.0135056E-01

                   665931.027 -649881.74 -744986.47 .1141416E7 -.108315E7 -.122544E7 2381.79631
Times of maxima :     .018401    .714046    .003365    .004702    .006545    .002864    .713761
             Random switching times for simulation number  299  :
                                   1  5.4359107E-02    2  5.5309833E-02    3  5.5354775E-02    4  9.7516764E-03    5  7.0067447E-01
                                   6  7.0174165E-01    7  7.0054964E-01

                   666112.204  -636646.9 -744986.47 .1141416E7 -.108315E7 -.122544E7 2406.52449
Times of maxima :     .018252    .714128    .003365    .004702    .006545    .002864    .713662
             Random switching times for simulation number  300  :
                                   1  5.6212631E-02    2  5.5400460E-02    3  5.4330646E-02    4  9.8967378E-03    5  7.0009595E-01
                                   6  7.0031249E-01    7  6.9985806E-01

                   667211.749  -646606.1 -744986.47 .1141416E7 -.108315E7 -.122544E7 2377.71449
Times of maxima :     .018256    .714143    .003365    .004702    .006545    .002864    .713647

 MAIN20 dumps OVER12 dice seed  SEEDSV =   3.0444871000000000E+09

Statistical output of  node  voltage   0.4287E+06 |              X0003AX0003BX0003C

1 ) -------------------------------------------------------------------------------------------------------------------------------
Statistical distribution of peak voltage at node  "X0003A".   The base voltage for per unit printout is  V-base = 4.28660705E+05
  Interval             voltage         voltage  in     Frequency    Cumulative               Per cent
    number         in per unit      physical units     (density)     frequency     .GE. current value
        30           1.5000000      6.42991058E+05             0             0          100.000000
        31           1.5500000      6.64424093E+05            89            89           70.333333
        32           1.6000000      6.85857128E+05           189           278            7.333333
        33           1.6500000      7.07290163E+05             4           282            6.000000
        34           1.7000000      7.28723199E+05             5           287            4.333333
        35           1.7500000      7.50156234E+05             8           295            1.666667
        36           1.8000000      7.71589269E+05             5           300             .000000
Summary of preceding table follows:       Grouped data     Ungrouped data
                                 Mean = 1.56983333E+00     1.56657587E+00
                             Variance = 2.18893534E-03     1.90622187E-03
                   Standard deviation = 4.67860592E-02     4.36603009E-02

2 ) -------------------------------------------------------------------------------------------------------------------------------
Statistical distribution of peak voltage at node  "X0003B".   The base voltage for per unit printout is  V-base = 4.28660705E+05
  Interval             voltage         voltage  in     Frequency    Cumulative               Per cent
    number         in per unit      physical units     (density)     frequency     .GE. current value
        29           1.4500000      6.21558022E+05             0             0          100.000000
        30           1.5000000      6.42991058E+05           118           118           60.666667
        31           1.5500000      6.64424093E+05           125           243           19.000000
        32           1.6000000      6.85857128E+05            44           287            4.333333
        33           1.6500000      7.07290163E+05             8           295            1.666667
        34           1.7000000      7.28723199E+05             0           295            1.666667
        35           1.7500000      7.50156234E+05             0           295            1.666667
        36           1.8000000      7.71589269E+05             0           295            1.666667
        37           1.8500000      7.93022304E+05             0           295            1.666667
        38           1.9000000      8.14455340E+05             0           295            1.666667
        39           1.9500000      8.35888375E+05             0           295            1.666667
        40           2.0000000      8.57321410E+05             0           295            1.666667
        41           2.0500000      8.78754445E+05             0           295            1.666667
        42           2.1000000      9.00187481E+05             0           295            1.666667
        43           2.1500000      9.21620516E+05             2           297            1.000000
        44           2.2000000      9.43053551E+05             3           300             .000000
Summary of preceding table follows:       Grouped data     Ungrouped data
                                 Mean = 1.52583333E+00     1.52538947E+00
                             Variance = 8.26853400E-03     8.09425644E-03
                   Standard deviation = 9.09314797E-02     8.99680857E-02

3 ) -------------------------------------------------------------------------------------------------------------------------------
  SUMMARY   SUMMARY   SUMMARY   SUMMARY   SUMMARY   SUMMARY   SUMMARY   SUMMARY   SUMMARY   SUMMARY   SUMMARY   SUMMARY   SUMMARY
3 ) -------------------------------------------------------------------------------------------------------------------------------
The following is a distribution of peak overvoltages among all output nodes of the last data card that have the same base voltage.
This distribution is for the maximum of the peaks at all output nodes with  V-base = 4.28660705E+05
  Interval             voltage         voltage  in     Frequency    Cumulative               Per cent
    number         in per unit      physical units     (density)     frequency     .GE. current value
        34           1.7000000      7.28723199E+05             0             0          100.000000
        35           1.7500000      7.50156234E+05           290           290            3.333333
        36           1.8000000      7.71589269E+05             5           295            1.666667
        37           1.8500000      7.93022304E+05             0           295            1.666667
        38           1.9000000      8.14455340E+05             0           295            1.666667
        39           1.9500000      8.35888375E+05             0           295            1.666667
        40           2.0000000      8.57321410E+05             0           295            1.666667
        41           2.0500000      8.78754445E+05             0           295            1.666667
        42           2.1000000      9.00187481E+05             0           295            1.666667
        43           2.1500000      9.21620516E+05             2           297            1.000000
        44           2.2000000      9.43053551E+05             3           300             .000000
Summary of preceding table follows:       Grouped data     Ungrouped data
                                 Mean = 1.73300000E+00     1.74558961E+00
                             Variance = 3.07959866E-03     2.78847214E-03
                   Standard deviation = 5.54941318E-02     5.28059858E-02

Statistical output of branch voltage   0.4287E+06 |-1            X0003BX0003CX0003AX0003BX0003CX0003A

4 ) -------------------------------------------------------------------------------------------------------------------------------
Statistical distribution of peak voltage  for branch  "X0003A"  to  "X0003B".   Base voltage  for per unit output = 4.28660705E+05
  Interval             voltage         voltage  in     Frequency    Cumulative               Per cent
    number         in per unit      physical units     (density)     frequency     .GE. current value
        50           2.5000000      1.07165176E+06             0             0          100.000000
        51           2.5500000      1.09308480E+06           291           291            3.000000
        52           2.6000000      1.11451783E+06             0           291            3.000000
        53           2.6500000      1.13595087E+06             3           294            2.000000
        54           2.7000000      1.15738390E+06             3           297            1.000000
        55           2.7500000      1.17881694E+06             2           299             .333333
        56           2.8000000      1.20024997E+06             1           300             .000000
Summary of preceding table follows:       Grouped data     Ungrouped data
                                 Mean = 2.52966667E+00     2.53132558E+00
                             Variance = 7.80824972E-04     7.23700644E-04
                   Standard deviation = 2.79432456E-02     2.69016848E-02

5 ) -------------------------------------------------------------------------------------------------------------------------------
  SUMMARY   SUMMARY   SUMMARY   SUMMARY   SUMMARY   SUMMARY   SUMMARY   SUMMARY   SUMMARY   SUMMARY   SUMMARY   SUMMARY   SUMMARY
5 ) -------------------------------------------------------------------------------------------------------------------------------
A distribution of peak values among all output branches of the last data card that have the same base value follows.  This
statistical distribution is for the maximum of the peaks at all of these output branches having base  voltage  = 4.28660705E+05
  Interval             voltage         voltage  in     Frequency    Cumulative               Per cent
    number         in per unit      physical units     (density)     frequency     .GE. current value
        57           2.8500000      1.22168301E+06             0             0          100.000000
        58           2.9000000      1.24311604E+06           300           300             .000000
Summary of preceding table follows:       Grouped data     Ungrouped data
                                 Mean = 2.87500000E+00     2.85877014E+00
                             Variance = 1.52089415E-15     0.00000000E+00
                   Standard deviation = 3.89986429E-08     0.00000000E+00

Blank card ends statistical tabulation requests.  |BLANK STATISTICS

                                      Sample curve symbols : "A", "B", and "C"
                                      Theoretical curve symbol : "*"
                                      Common curve symbol : "X"

        Switch  "X0001B"  to  "X0002B"            Switch  "X0001A"  to  "X0002A"            Switch  "X0001C"  to  "X0002C"
1.32420000E+00   switchings per column          1.32420000E+00   switchings per column     1.32420000E+00   switchings per column
              Columns                                     Columns                                     Columns
          5   10   15   20   25   30                5   10   15   20   25   30                5   10   15   20   25   30
     +----+----+----+----+----+----+           +----+----+----+----+----+----+           +----+----+----+----+----+----+
    X                                         X                                         X
    X                                         X                                         X
    X                                         X                                         X
    *A                                        X                                         X
    |*A                                       B*                                        |*C
    |A*                                       | X                                       | X
    |   X                                     | B *                                     |   *  C
    |       X                                 |       X                                 |     C *
    |      A    *                             |           *B                            |       C   *
    |                 * A                     |                 *    B                  |                 *  C
    |                       *     A           |                       X                 |                       *    C
    |                      A    *             |                           *   B         |                    C      *
    |  5.5000E-02                 *     A     |  5.5000E-02              B  *           |  5.5000E-02                 *     C
    |                           *      A      |                         B *             |                         C *
    |                  A    *                 |                       * B               |                       *     C
    |               A *                       |                B*                       |            C    *
    |         A *                             |          B*                             |        C  *
    |       * A                               |       X                                 |       *  C
    |  A*                                     |   X                                     | C *
    | *A                                      | X                                       | X
    |X                                        |X                                        |*C
    X                                         *B                                        X
    X                                         X                                         X
    X                                         X                                         *C
    X                                         X                                         X
   Time (scale = 3.33333333E-04  Sec/line)   Time (scale = 3.33333333E-04  Sec/line)   Time  (scale = 3.33333333E-04  Sec/line)

        Switch  "X0003C"  to  "XX0009"            Switch  "X0001B"  to  "X0002B"            Switch  "X0001A"  to  "X0002A"
1.32420000E+00   switchings per column          1.32420000E+00   switchings per column     1.32420000E+00   switchings per column
              Columns                                     Columns                                     Columns
          5   10   15   20   25   30                5   10   15   20   25   30                5   10   15   20   25   30
     +----+----+----+----+----+----+           +----+----+----+----+----+----+           +----+----+----+----+----+----+
    X                                         X                                         X
    X                                         X                                         X
    X                                         X                                         X
    *A                                        X                                         * C
    |X                                        |X                                        |*C
    | *A                                      | X                                       | X
    |  A*                                     |  B*                                     |   X
    |      A*                                 |    B  *                                 |     C *
    |         A *                             |           *  B                          |          C*
    |                 * A                     |                B*                       |                 X
    |                       *     A           |                       *    B            |                       X
    |                           *    A        |                           *B            |                           * C
    |  1.0000E-02                 *A          |  7.0000E-01                 *   B       |  7.0000E-01                C*
    |                           *   A         |                           *  B          |                           *  C
    |                A      *                 |                   B   *                 |                    C  *
    |                 * A                     |            B    *                       |                 X
    |           X                             |         B *                             |           * C
    |     A *                                 |     B *                                 |       X
    A   *                                     |   *  B                                  |   *C
    A *                                       | X                                       C *
    A*                                        |*B                                       |*C
    *A                                        *B                                        X
    X                                         X                                         X
    X                                         *B                                        X
    X                                         X                                         X
   Time (scale = 3.33333333E-04  Sec/line)   Time (scale = 3.33333333E-04  Sec/line)   Time  (scale = 3.33333333E-04  Sec/line)

   Switch  "X0001C"  to  "X0002C"
     1.32420000E+00   switchings per column
              Columns
          5   10   15   20   25   30
     +----+----+----+----+----+----+
    X
    X
    *A
    X
    |X
    |A*
    | A *
    |       X
    |           *    A
    |          A      *
    |                       *    A
    |                         A *
    |  7.0000E-01                A*
    |                          A*
    |                       X
    |                 *  A
    |           *       A
    |    A  *
    |   X
    A *
    A*
    *A
    X
    *A
    X
   Time (scale = 3.33333333E-04  Sec/line)
 .... Questionable Kolmogorov-Smirnov test result = 4.79983461E-01
 .... Questionable Kolmogorov-Smirnov test result = 8.61125218E-01
 .... Questionable Kolmogorov-Smirnov test result = 6.22920778E-01
 .... Questionable Kolmogorov-Smirnov test result = 8.70941508E-02
 .... Questionable Kolmogorov-Smirnov test result = 7.08509700E-01
 .... Questionable Kolmogorov-Smirnov test result = 9.61921384E-01
 .... Questionable Kolmogorov-Smirnov test result = 7.92096056E-01

Actual List Sizes for the preceding solution follow.       11-Nov-18  11.00.00
   Size  1-10:    27    26    38     3   138    13    42  5298     0     0
   Size 11-20:     0     7 -9999 -9999 -9999     0     0     0    23  3252
   Size 21-30:    36   180 14784     0 -9999     9 -9999 -9999 -9999     0
Seconds for overlays  1-5  :     0.000     0.000     0.000  -- (CP: Wait; Real)
Seconds for overlays  6-11 :     0.000     0.000     0.000
Seconds for overlays 12-15 :     0.000     0.000     0.000
Seconds for time-step loop :     0.000     0.000     0.000
Seconds after DELTAT-loop  :     0.000     0.000     0.000
                               ---------------------------
                   Totals  :     0.000     0.000     0.000

