   ---   55   cards of disk file read into card cache cells  1   onward.
 <===> Done with  "/"-card sorting by data class.    Remember that the source file appears different from interpreted input data.
Alternative Transients Program (ATP),  F77 GNU Linux or DOS.  All rights reserved by Can/Am user group of Portland, Oregon, USA.
 Date (dd-mth-yy) and time of day (hh.mm.ss) = 11-Nov-18  11.00.00    Name of disk plot file, if any, is
Consult the 860-page ATP Rule Book of the Can/Am EMTP User Group in Portland,  Oregon, USA.  Source code date is
Total size of LABCOM tables = 16446853 INTEGER words.  31 VARDIM  List Sizes follow:  6002  10K  192K  900  420K  1200  15K
  120K  2250  3800  720  2K  72800  510  800K  800  90  254  800K  100K  3K  15K  192K  120  45K  260K  600  210K  1100  19  200K
--------------------------------------------------+--------------------------------------------------------------------------------
Descriptive interpretation of input data cards.   |  Input data card images are shown below, all 80 columns, character by character
                                                  0         1         2         3         4         5         6         7         8
                                                  012345678901234567890123456789012345678901234567890123456789012345678901234567890
--------------------------------------------------+--------------------------------------------------------------------------------
Comment card.   KOMPAR > 0.                       |C data:Caso0_ReEnergizacao_Convenc_RPI.atp
Marker card preceding new EMTP data case.         |BEGIN NEW DATA CASE
Comment card.   KOMPAR > 0.                       |C $DUMMY, XYZ000
Misc. data.     1.000E-06   1.000E+00   0.000E+00 |   1.E-6      1.
Misc. data.  500  1  0  0  1  0  0  1  300  0     |     500       1       0       0       1       0       0       1     300
Statistics data.      1    1    0    0    1    0  |       1       1       0       0       1      -1                               0
Series R-L-C.   5.000E+00  7.500E-02  0.000E+00   |  X0001AX0007A                5.   75.                                         0
Series R-L-C.   5.000E+00  7.500E-02  0.000E+00   |  X0001BX0007B                5.   75.                                         0
Series R-L-C.   5.000E+00  7.500E-02  0.000E+00   |  X0001CX0007C                5.   75.                                         0
Series R-L-C.   2.000E+02  0.000E+00  0.000E+00   |  X0007AX0001A              200.                                               0
Series R-L-C.   2.000E+02  0.000E+00  0.000E+00   |  X0007BX0001B              200.                                               0
Series R-L-C.   2.000E+02  0.000E+00  0.000E+00   |  X0007CX0001C              200.                                               0
Series R-L-C.   1.516E+00  1.608E+00  0.000E+00   |  X0003BXX0008            1.5155 1608.                                         0
Series R-L-C.   1.516E+00  1.608E+00  0.000E+00   |  X0003AXX0008            1.5155 1608.                                         0
Series R-L-C.   1.516E+00  1.608E+00  0.000E+00   |  X0003CXX0008            1.5155 1608.                                         0
Series R-L-C.   3.272E-01  3.472E-01  0.000E+00   |  XX0008                   .3272 347.2                                         0
Series R-L-C.   3.000E+01  0.000E+00  0.000E+00   |  XX0009                     30.                                               0
Series R-L-C.   8.000E+02  0.000E+00  0.000E+00   |  X0002AX0010A              800.                                               0
Series R-L-C.   8.000E+02  0.000E+00  0.000E+00   |  X0002BX0010B              800.                                               0
Series R-L-C.   8.000E+02  0.000E+00  0.000E+00   |  X0002CX0010C              800.                                               0
Dynamic $INCLUDE uses fixed RAM cache to delay.   |$INSERT, C:\SimulacaoATP\1\EXT1.pch
J. Marti line, mode  1   parameters begin.        |-1X0010AX0006C                2.  0.00              -2 3
J. Marti line, mode  2   parameters begin.        |-2X0010BX0006A                2.  0.00              -2 3
J. Marti line, mode  3   parameters begin.        |-3X0010CX0006B                2.  0.00              -2 3
TR(1,1 )...  0.667-0.707-0.317                    |  0.66668704 -0.70710678 -0.31743981
TI(1,1 )...  0.000 0.000 0.004                    |  0.00000000  0.00000000  0.00360196
TR(2,1 )...  0.333 0.000 0.894                    |  0.33285412  0.00000000  0.89350256
TI(2,1 )... -0.016 0.000 0.010                    | -0.01627623  0.00000000  0.00954818
TR(3,1 )...  0.667 0.707-0.317                    |  0.66668704  0.70710678 -0.31743981
TI(3,1 )...  0.000 0.000 0.004                    |  0.00000000  0.00000000  0.00360196
Dynamic $INCLUDE uses fixed RAM cache to delay.   |$INSERT, C:\SimulacaoATP\1\CONV2.pch
J. Marti line, mode  1   parameters begin.        |-1X0004AX0005C                2.  0.00              -2 3
J. Marti line, mode  2   parameters begin.        |-2X0004BX0005A                2.  0.00              -2 3
J. Marti line, mode  3   parameters begin.        |-3X0004CX0005B                2.  0.00              -2 3
TR(1,1 )...  0.667-0.707-0.317                    |  0.66668704 -0.70710678 -0.31743981
TI(1,1 )...  0.000 0.000 0.004                    |  0.00000000  0.00000000  0.00360196
TR(2,1 )...  0.333 0.000 0.894                    |  0.33285412  0.00000000  0.89350256
TI(2,1 )... -0.016 0.000 0.010                    | -0.01627623  0.00000000  0.00954818
TR(3,1 )...  0.667 0.707-0.317                    |  0.66668704  0.70710678 -0.31743981
TI(3,1 )...  0.000 0.000 0.004                    |  0.00000000  0.00000000  0.00360196
Dynamic $INCLUDE uses fixed RAM cache to delay.   |$INSERT, C:\SimulacaoATP\1\EXT3.pch
J. Marti line, mode  1   parameters begin.        |-1X0005AX0003A                2.  0.00              -2 3
J. Marti line, mode  2   parameters begin.        |-2X0005BX0003B                2.  0.00              -2 3
J. Marti line, mode  3   parameters begin.        |-3X0005CX0003C                2.  0.00              -2 3
TR(1,1 )...  0.667-0.707-0.317                    |  0.66668704 -0.70710678 -0.31743981
TI(1,1 )...  0.000 0.000 0.004                    |  0.00000000  0.00000000  0.00360196
TR(2,1 )...  0.333 0.000 0.894                    |  0.33285412  0.00000000  0.89350256
TI(2,1 )... -0.016 0.000 0.010                    | -0.01627623  0.00000000  0.00954818
TR(3,1 )...  0.667 0.707-0.317                    |  0.66668704  0.70710678 -0.31743981
TI(3,1 )...  0.000 0.000 0.004                    |  0.00000000  0.00000000  0.00360196
Dynamic $INCLUDE uses fixed RAM cache to delay.   |$INSERT, C:\SimulacaoATP\1\CONV4.pch
J. Marti line, mode  1   parameters begin.        |-1X0006AX0004C                2.  0.00              -2 3
J. Marti line, mode  2   parameters begin.        |-2X0006BX0004A                2.  0.00              -2 3
J. Marti line, mode  3   parameters begin.        |-3X0006CX0004B                2.  0.00              -2 3
TR(1,1 )...  0.667-0.707-0.317                    |  0.66668704 -0.70710678 -0.31743981
TI(1,1 )...  0.000 0.000 0.004                    |  0.00000000  0.00000000  0.00360196
TR(2,1 )...  0.333 0.000 0.894                    |  0.33285412  0.00000000  0.89350256
TI(2,1 )... -0.016 0.000 0.010                    | -0.01627623  0.00000000  0.00954818
TR(3,1 )...  0.667 0.707-0.317                    |  0.66668704  0.70710678 -0.31743981
TI(3,1 )...  0.000 0.000 0.004                    |  0.00000000  0.00000000  0.00360196
Blank card ending branches.  IBR, NTOT = 26  27   |BLANK BRANCH
Switch.   5.50E-02  1.00E-03  0.00E+00  3.33E+03  |  X0001BX0002B      .055      .001               3333.STATISTICS               0
Switch.   5.50E-02  1.00E-03  0.00E+00  3.33E+03  |  X0001AX0002A      .055      .001               3333.STATISTICS               0
Switch.   5.50E-02  1.00E-03  0.00E+00  3.33E+03  |  X0001CX0002C      .055      .001               3333.STATISTICS               0
Switch.   1.00E-02  1.00E-03  0.00E+00  0.00E+00  |  X0003CXX0009       .01      .001                    STATISTICS               1
Switch.   7.00E-01  1.00E-03  0.00E+00  0.00E+00  |  X0001BX0002B        .7      .001                    STATISTICS               0
Switch.   7.00E-01  1.00E-03  0.00E+00  0.00E+00  |  X0001AX0002A        .7      .001                    STATISTICS               0
Switch.   7.00E-01  1.00E-03  0.00E+00  0.00E+00  |  X0001CX0002C        .7      .001                    STATISTICS               0
Switch.   0.00E+00  6.98E-01  0.00E+00  0.00E+00  |  X0002AX0010A                .698                                             0
Switch.   0.00E+00  6.98E-01  0.00E+00  0.00E+00  |  X0002BX0010B                .698                                             0
Switch.   0.00E+00  6.98E-01  0.00E+00  0.00E+00  |  X0002CX0010C                .698                                             0
Switch.   7.10E-01  0.00E+00  0.00E+00  0.00E+00  |  X0002AX0010A       .71                                                       0
Switch.   7.10E-01  0.00E+00  0.00E+00  0.00E+00  |  X0002BX0010B       .71                                                       0
Switch.   7.10E-01  0.00E+00  0.00E+00  0.00E+00  |  X0002CX0010C       .71                                                       0
Blank card ending switches.   KSWTCH = 13.        |BLANK SWITCH
Source.   4.29E+05  6.00E+01  0.00E+00 -1.00E+00  |14X0007A  428660.705       60.                                     -1.      100.
Source.   4.29E+05  6.00E+01 -1.20E+02 -1.00E+00  |14X0007B  428660.705       60.     -120.                           -1.      100.
Source.   4.29E+05  6.00E+01 -2.40E+02 -1.00E+00  |14X0007C  428660.705       60.     -240.                           -1.      100.
Blank card ends electric sources.  KCONST = 3     |BLANK SOURCE

     Total network loss  P-loss  by summing injections =   2.244832896729E+08

Card of names for time-step loop output.          |  X0003AX0003BX0003C
Output voltage differences for pairs of A6 names  |-5X0003BX0003CX0003AX0003BX0003CX0003A
Blank card ending requests for output variables.  |BLANK OUTPUT

Column headings for the  7   EMTP output variables follow.  These are divided among the 5 possible classes as follows ....
  First  6     output variables are electric-network voltage differences (upper voltage minus lower voltage);
  Next   1     output variables are branch currents (flowing from the upper node to the lower node);
   Step      Time      X0003A     X0003B     X0003C     X0003B     X0003A     X0003C     X0003C
                                                        X0003C     X0003B     X0003A     XX0009
 ***      Phasor I(0) =  4.6916394E+01                     Switch  "X0001B"  to  "X0002B"  closed in the steady-state.
 ***      Phasor I(0) =  3.5108351E+02                     Switch  "X0001A"  to  "X0002A"  closed in the steady-state.
 ***      Phasor I(0) = -3.9484443E+02                     Switch  "X0001C"  to  "X0002C"  closed in the steady-state.
 ***                    Switch  "X0002A"  to  "X0010A"  closed  after  0.00000000E+00  sec.
 ***                    Switch  "X0002B"  to  "X0010B"  closed  after  0.00000000E+00  sec.
 ***                    Switch  "X0002C"  to  "X0010C"  closed  after  0.00000000E+00  sec.
      0       0.0  152722.069 -263846.85 108251.033 -372097.89 416568.922 -44471.035        0.0
    500     .5E-3  189680.234 -253424.38 62078.7274 -315503.11 443104.617 -127601.51        0.0
   1000     .1E-2  220672.338 -234375.83 13245.9886 -247621.82 455048.172 -207426.35        0.0
   1500     .0015  243084.102 -207189.59 -35910.083 -171279.51 450273.692 -278994.19        0.0
   2000      .002  562767.004  -109008.4 -519632.47  410624.07 671775.403  -.10824E7        0.0
   2500     .0025  553757.442 53915.0959 -634824.07 688739.162 499842.346 -.118858E7        0.0
   3000      .003  493563.136  190500.64 -716123.11 906623.752 303062.496 -.120969E7        0.0
   3500     .0035  401144.124 294385.244 -731150.47 .1025536E7 106758.881 -.113229E7        0.0
   4000      .004  290079.182 406731.506 -681226.91 .1087958E7 -116652.32 -971306.09        0.0
   4500     .0045  167097.631 509102.861 -623346.55 .1132449E7 -342005.23 -790444.18        0.0
   5000      .005  16200.4539 581079.789  -543750.8 .1124831E7 -564879.34 -559951.26        0.0
   5500     .0055  -261246.53  603573.01 -297226.77 900799.783 -864819.54 -35980.239        0.0
   6000      .006  -457531.41 557299.645 -71473.972 628773.618 -.101483E7 386057.442        0.0
   6500     .0065  -566852.24 489280.621 122658.265 366622.356 -.105613E7 689510.509        0.0
   7000      .007  -625914.95 412115.064  267630.59 144484.474 -.103803E7 893545.544        0.0
   7500     .0075  -647169.65  328624.42 350249.072 -21624.652 -975794.07 997418.719        0.0
   8000      .008  -635969.33 227034.974 401996.094 -174961.12  -863004.3 .1037965E7        0.0
   8500     .0085   -590483.9 112177.285 435394.787  -323217.5 -702661.18 .1025879E7        0.0
   9000      .009  -473566.43 4485.28919 401809.418 -397324.13 -478051.72 875375.849        0.0
   9500     .0095  -334396.44 -73628.573 337281.853 -410910.43 -260767.87 671678.293        0.0
  10000       .01  -218211.27 -127790.55 274535.874 -402326.42 -90420.728 492747.148        0.0
 ***                                                             Close switch  "X0003C"  to  "XX0009"  after  1.00010000E-02  sec.
  10500     .0105  -180761.16 -228661.07 22167.6136 -250828.68 47899.9069 202928.777 738.920454
  11000      .011  -109868.12 -270764.48 21856.5347 -292621.02 160896.364 131724.655 728.551156
  11500     .0115  -55042.306 -317494.59 23820.0334 -341314.62 262452.279 78862.3396 794.001114
  12000      .012  -22068.934 -364744.53 28547.7896 -393292.32 342675.595 50616.7236 951.592985
  12500     .0125  -10023.323 -391987.03 33292.3498 -425279.38 381963.705 43315.6724 1109.74499
  13000      .013  -1089.7575 -421001.35 37837.5381 -458838.89 419911.593 38927.2956 1261.25127
  13500     .0135   -35518.32 -469383.73 43668.2685 -513051.99 433865.405 79186.5885 1455.60895
  14000      .014  -59467.255 -555914.34 54920.3047 -610834.65 496447.086  114387.56 1830.67682
  14500     .0145  36259.3539 -534853.35 62169.2317 -597022.58 571112.706 25909.8778 2072.30772
  15000      .015  135084.127 -492262.26 62493.9904 -554756.25 627346.385 -72590.136 2083.13301
  15500     .0155   228812.21 -440464.37 56469.2485 -496933.62 669276.583 -172342.96 1882.30828
  16000      .016  333395.487 -377625.79 47621.5527 -425247.34 711021.277 -285773.93 1587.38509
  16500     .0165  442092.888 -295005.33 37681.5158 -332686.85 737098.218 -404411.37 1256.05053
  17000      .017  546601.879 -185038.17 26092.2914 -211130.46 731640.047 -520509.59 869.743047
  17500     .0175  622091.136 -57510.486 14457.1139   -71967.6 679601.623 -607634.02 481.903798
  18000      .018  657696.923 86555.5181 7080.38511  79475.133 571141.405 -650616.54 236.012837
  18500     .0185  656492.615 229920.321 2090.01681 227830.304 426572.294  -654402.6 69.6672271
  19000      .019  613543.216 355050.538 -4981.6054 360032.143 258492.679 -618524.82 -166.05351
  19500     .0195   531150.62  461136.41 -13572.688 474709.098 70014.2096 -544723.31 -452.42293
  20000       .02   412954.99 543960.494 -22640.164 566600.658  -131005.5 -435595.15 -754.67213
  20500     .0205  271600.646 598981.815 -31459.199 630441.014 -327381.17 -303059.84   -1048.64
  21000      .021  120432.907 622656.413 -39798.383 662454.796 -502223.51 -160231.29 -1326.6128
  21500     .0215  -35518.726 606855.008 -46726.463 653581.471 -642373.73 -11207.737 -1557.5488
  22000      .022  -184538.28 557083.738 -50800.734 607884.471 -741622.02 133737.545 -1693.3578
  22500     .0225  -309182.27 491168.447 -52167.194 543335.641 -800350.71 257015.072 -1738.9065
  23000      .023  -402988.77 417984.235 -51433.934  469418.17 -820973.01 351554.838 -1714.4645
  23500     .0235  -466674.05 338355.676 -49243.489 387599.166 -805029.72 417430.558 -1641.4496
  24000      .024  -503409.92 253983.298 -45721.317 299704.616 -757393.22 457688.608 -1524.0439
  24500     .0245  -516730.86 168883.026 -40865.952 209748.978 -685613.89 475864.907 -1362.1984
  25000      .025  -510606.14 87584.0073 -34940.733  122524.74 -598190.15 475665.407 -1164.6911
  25500     .0255    -491279. 10978.9559 -27924.427  38903.383 -502257.96 463354.578 -930.81424
  26000      .026  -462857.84 -61331.457 -19323.942 -42007.514 -401526.38 443533.899 -644.13141
  26500     .0265  -428333.94 -131182.46 -9087.9024 -122094.56 -297151.48 419246.034 -302.93008
  27000      .027  -390212.09 -200459.29 2079.08772 -202538.38  -189752.8 392291.175 69.3029241
  27500     .0275  -348915.57 -269417.17 13329.7082 -282746.88 -79498.397 362245.278 444.323606
  28000      .028  -302997.43 -337029.93 24021.5417 -361051.47 34032.5053 327018.968 800.718056
  28500     .0285  -249766.94 -401047.72 33659.4904 -434707.21 151280.779 283426.429 1121.98301
  29000      .029  -186925.58 -458636.25 41779.1329 -500415.38 271710.662 228704.718 1392.63776
  29500     .0295  -114445.84  -507056.9 48107.8401 -555164.74 392611.062 162553.678 1603.59467
  30000       .03  -32979.938 -542325.98 52627.4919 -594953.47 509346.043 85607.4294 1754.24973
  30500     .0305  57041.1682 -559022.74 55372.8915 -614395.63 616063.907 -1668.2768 1845.76305
  31000      .031  154025.693 -552129.02 56340.6556 -608469.67 706154.709 -97685.037 1878.02185
  31500     .0315  253900.301 -518941.07 55494.8671 -574435.94 772841.373 -198405.43  1849.8289
  32000      .032  350652.856 -459488.88 52836.4372 -512325.31 810141.732 -297816.42 1761.21457
  32500     .0325  437835.456 -375925.06 48419.5962 -424344.66 813760.521 -389415.86 1613.98654
  33000      .033  509536.661 -272178.38 42324.1425 -314502.52 781715.039 -467212.52 1410.80475
  33500     .0335  560670.537 -153887.29 34726.9907 -188614.28 714557.831 -525943.55 1157.56636
  34000      .034  587420.644 -27880.327 25966.2206 -53846.548 615300.971 -561454.42 865.540688
  34500     .0345  587550.279 98399.6568  16463.599 81936.0579 489150.622 -571086.68 548.786633
  35000      .035  560707.946 217596.186 6601.48811 210994.698  343111.76 -554106.46 220.049604
  35500     .0355  508564.227 323297.425 -3307.7878 326605.212 185266.803 -511872.01 -110.25959
  36000      .036  434574.544 410692.249 -12981.931 423674.179 23882.2957 -447556.48 -432.73103
  36500     .0365  343511.175 476867.204 -22149.219 499016.422 -133356.03 -365660.39  -738.3073
  37000      .037  240764.299 520643.801 -30558.826 551202.627  -279879.5 -271323.13 -1018.6275
  37500     .0375  131678.101 542202.624 -37969.011 580171.635 -410524.52 -169647.11 -1265.6337
  38000      .038  21285.4219 542878.541 -44127.168 587005.708 -521593.12  -65412.59 -1470.9056
  38500     .0385  -85791.648 525020.615  -48778.93 573799.546 -610812.26 37012.7178 -1625.9643
  39000      .039  -185560.54 491608.793 -51700.178 543308.971 -677169.34 133860.365 -1723.3393
  39500     .0395  -274934.34 445624.522 -52728.676 498353.198 -720558.86  222205.66 -1757.6225
  40000       .04  -351806.98 389533.578 -51781.423 441315.001 -741340.56 300025.554 -1726.0474
  40500     .0405  -414854.14 325128.343 -48865.504 373993.846 -739982.48 365988.634 -1628.8501
  41000      .041  -463275.44 253629.362 -44084.765 297714.128  -716904.8 419190.674 -1469.4922
  41500     .0415  -496617.87 175892.943 -37627.726 213520.668 -672510.82 458990.147 -1254.2575
  42000      .042  -514651.32 92660.3675 -29741.376 122401.744 -607311.69 484909.947 -991.37921
  % % % % % %   Suspended simulation;  plot data space exhausted;  SPY SPACE is required.   LIMBUF =  340000.
  % % % % % %   Suspended simulation;  plot data space exhausted;  SPY SPACE is required.   LIMBUF =  340000.
  +++  Time-sharing disabled.   Send  user-keyed interrupt to silence alarm.
   Current values.  INDBUF  INDBEG  LIMBUF  MFLUSH  NUMDCD  KCARD1  KCARD2
                    339994      50  340000    1000      46       1      50
Plot timespan now in memory (in sec) = 0.00000000E+00   4.24930000E-02
   ++++  Begin plot-data copy from memory to disk.   MFLUSH, INDBUF, N4, Tbeg,  Tend = 1001  339994       1  -1.00000E+00
1.00000E+19
  42500     .0425  -517276.54  4817.4996  -20712.58   25530.08 -522094.04 496563.963 -690.41935
  43000      .043    -504478. -86334.939 -10864.593 -75470.346 -418143.06 493613.409  -362.1531
  43500     .0435  -476339.99  -178831.1  -555.1082 -178275.99  -297508.9 475784.884 -18.503607
  44000      .044  -433125.11 -269891.36 9835.47187 -279726.83 -163233.75  442960.58 327.849062
  44500     .0445  -375395.87 -355954.84 19920.6368 -375875.48 -19441.035 395316.511 664.021227
  45000      .045  -304172.22 -432926.02 29323.0433 -462249.06 128753.792 333495.268 977.434777
  45500     .0455  -221083.01 -496571.04 37690.8713 -534261.91 275488.032 258773.877 1256.36238
  46000      .046  -128441.12 -542944.56 44716.3382  -587660.9 414503.449 173157.454 1490.54461
  46500     .0465   -29210.02 -568773.28 50151.7409 -618925.02 539563.261 79361.7609  1671.7247
  47000      .047  73110.8752 -571789.02 53818.6894 -625607.71 644899.892 -19292.186 1793.95631
  47500     .0475  174640.086 -551008.25 55610.6433 -606618.89 725648.331 -119029.44 1853.68811
  48000      .048   271300.45 -506906.93 55491.1395 -562398.07 778207.378 -215809.31 1849.70465
  48500     .0485  359047.109 -441428.59 53488.7516 -494917.34 800475.702 -305558.36 1782.95839
  49000      .049  434118.089 -357816.13 49689.9574 -407506.08 791934.215 -384428.13 1656.33191
  49500     .0495  493270.959 -260310.23 44233.0329 -304543.27 753581.193 -449037.93 1474.43443
  50000       .05  533975.539 -153774.51 37304.8179 -191079.33 687750.052 -496670.72 1243.49393
  50500     .0505  554546.431 -43299.874 29138.4065  -72438.28 597846.305 -525408.02 971.280216
  51000      .051  554212.208 66170.9772 20008.5069 46162.4703 488041.231  -534203.7 666.950229
  51500     .0515  533125.915 170164.863 10223.7042 159941.158 362961.052 -522902.21 340.790139
  52000      .052  492324.432 264914.798 117.022841 264797.775 227409.634 -492207.41 3.90076138
  52500     .0525  433642.679 347488.338 -9964.4641 357452.802 86154.3414 -443607.14  -332.1488
  53000      .053  359586.819 415799.263 -19671.144 435470.407 -56212.444 -379257.96 -655.70481
  53500     .0535  273177.515  468519.59 -28663.113 497182.703 -195342.07 -301840.63 -955.43709
  54000      .054  177784.391  504931.77 -36622.164 541553.934 -327147.38 -214406.56 -1220.7388
  54500     .0545  76972.2638 524767.079 -43262.903 568029.982 -447794.82 -120235.17 -1442.0968
  55000      .055  -25632.924 528065.179 -48342.943 576408.122  -553698.1 -22710.018 -1611.4314
  55500     .0555  -126461.99 515074.834 -51672.213 566747.047 -641536.82 74789.7765 -1722.4071
  56000      .056  -222107.61 486207.673 -53121.073 539328.746 -708315.28 168986.536 -1770.7024
  56500     .0565  -309414.97 442051.489 -52626.866 494678.354 -751466.46 256788.107 -1754.2289
  57000      .057  -385556.23 383438.705 -50198.383 433637.089 -768994.94  335357.85 -1673.2794
 ***                                                             Open  switch  "X0001B"  to  "X0002B"  after  5.70920000E-02  sec.
  57500     .0575  -448091.39 311551.144 -45917.428 357468.572 -759642.53 402173.959 -1530.5809
  58000      .058  -495020.88 228031.491 -39936.666 267968.157 -723052.37 455084.218 -1331.2222
  58500     .0585  -524833.56 135069.703 -32473.647  167543.35 -659903.27 492359.918 -1082.4549
  59000      .059  -542503.35 49189.3906 -24360.011 73549.4019 -591692.74 518143.339 -812.00038
 ***                                                             Open  switch  "X0001A"  to  "X0002A"  after  5.94040000E-02  sec.
  59500     .0595  -540041.49  -13844.22 -15593.324 1749.10441 -526197.27 524448.162 -519.77747
  60000       .06  -513188.05 -71253.358 -5598.3011 -65655.057 -441934.69  507589.75 -186.61004
 ***                                                             Open  switch  "X0001C"  to  "X0002C"  after  6.01590000E-02  sec.
  60500     .0605  -468933.16 -130902.87 4650.43785 -135553.31 -338030.29 473583.594 155.014595
  61000      .061  -410454.82 -193169.35 14841.5902 -208010.94 -217285.47 425296.411 494.719673
  61500     .0615  -366578.57 -252915.33 25953.8748 -278869.21 -113663.24 392532.443  865.12916
  62000      .062  -307393.75 -309137.89 33598.6754 -342736.56  1744.1344 340992.427 1119.95585
  62500     .0625  -235517.57 -339376.58  32939.323  -372315.9 103859.003 268456.898 1097.97743
  63000      .063   -183865.9 -379946.28 27580.5972 -407526.88 196080.382 211446.495 919.353241
  63500     .0635  -113305.12 -412435.84 21299.5044 -433735.34 299130.724  134604.62  709.98348
  64000      .064  -28783.331 -433363.78 14648.1299 -448011.91 404580.446 43431.4612 488.270998
  64500     .0645   59144.183 -449077.51 7430.71173 -456508.22 508221.695 -51713.471 247.690391
  65000      .065  130357.824 -452125.43 155.124537 -452280.56 582483.258  -130202.7  5.1708179
  65500     .0655  199355.782  -463161.6 -6420.0384 -456741.56 662517.384 -205775.82 -214.00128
  66000      .066  220144.184 -485331.96 -10250.364  -475081.6 705476.145 -230394.55 -341.67879
  66500     .0665    253257.8 -493265.99 -10094.494 -483171.49 746523.786 -263352.29 -336.48313
  67000      .067  302367.427 -484823.99 -8955.6785 -475868.31 787191.414 -311323.11 -298.52262
  67500     .0675  355793.097  -463758.1 -6864.5177 -456893.59 819551.201 -362657.61 -228.81726
  68000      .068  399708.009 -435572.08 -3236.5452 -432335.53 835280.086 -402944.55 -107.88484
  68500     .0685  431187.059 -391998.42 1548.28698 -393546.71 823185.483 -429638.77 51.6095658
  69000      .069  456714.165 -345501.65 6961.69149 -352463.35 802215.819 -449752.47 232.056383
  69500     .0695  460456.066 -290118.83 12364.6877 -302483.52 750574.898 -448091.38 412.156256
  70000       .07  475761.599 -226108.57 14395.7603 -240504.33 701870.169 -461365.84 479.858676
  70500     .0705  477463.443 -170996.33 14045.1497 -185041.48 648459.777 -463418.29 468.171657
  71000      .071  476731.846 -113413.98 12984.6947 -126398.68 590145.828 -463747.15 432.823156
  71500     .0715  469095.584 -44535.502 11471.2452 -56006.747 513631.086 -457624.34 382.374838
  72000      .072  452583.583 33537.0613 8956.49365 24580.5676 419046.522 -443627.09 298.549788
  72500     .0725  424502.286  107130.64 5783.74686 101346.893 317371.645 -418718.54 192.791562
  73000      .073  382038.875 179919.636  2461.0418 177458.594  202119.24 -379577.83 82.0347266
  73500     .0735  328866.263 232851.802 -401.76864 233253.571 96014.4609 -329268.03 -13.392288
  74000      .074  271591.246 275145.726 -1674.1346 276819.861 -3554.4801 -273265.38 -55.804486
  74500     .0745  220327.601 315518.565 -2130.0401 317648.605 -95190.963 -222457.64 -71.001337
  75000      .075  161680.098 360145.051 -2350.4983 362495.549 -198464.95  -164030.6 -78.349944
  75500     .0755  97355.0397 399827.316 -1727.4959 401554.812 -302472.28 -99082.536 -57.583197
  76000      .076  29442.5954  436235.78 -44.592741 436280.373 -406793.18 -29487.188 -1.4864247
  76500     .0765   -38598.54  468106.57 2200.46311 465906.107 -506705.11 40799.0035 73.3487702
  77000      .077  -102900.62 483766.179 4837.13022 478929.048  -586666.8 107737.753 161.237674
  77500     .0775  -156505.68 490553.367 6752.34876 483801.018 -647059.04 163258.024 225.078292
  78000      .078   -208316.6 483204.175 7692.77079 475511.404 -691520.77 216009.369 256.425693
  78500     .0785  -264435.38  474308.83  8169.6982 466139.131 -738744.21 272605.082 272.323273
  79000      .079  -312814.12 460517.668 8371.31014 452146.358 -773331.79 321185.434 279.043671
  79500     .0795  -356832.45 447601.061 7925.57386 439675.487 -804433.51  364758.02 264.185795
  80000       .08  -393995.53 426396.494 6831.52019 419564.973 -820392.02  400827.05  227.71734
  80500     .0805  -419976.93 391193.993 5474.14443 385719.849 -811170.93 425451.076 182.471481
  81000      .081  -437695.25  342646.08 4165.67099 338480.409 -780341.33 441860.926   138.8557
  81500     .0815  -451897.98 282881.032 3379.01582 279502.016 -734779.02 455276.999 112.633861
  82000      .082  -462666.53 225984.154 2800.69388  223183.46 -688650.69 465467.225 93.3564627
  82500     .0825  -462929.73  166392.71 2176.12875 164216.581 -629322.44 465105.854 72.5376248
  83000      .083  -460811.06 109550.752 1771.29695 107779.455 -570361.82 462582.361 59.0432317
  83500     .0835  -447466.59 49530.3045 1895.79439 47634.5101 -496996.89 449362.384 63.1931465
  84000      .084  -420002.69 -14012.541 2484.37636 -16496.917 -405990.15 422487.069 82.8125454
  84500     .0845  -383439.05 -81400.906 3488.77767 -84889.684 -302038.14 386927.823 116.292589
  % % % % % %   Suspended simulation;  plot data space exhausted;  SPY SPACE is required.   LIMBUF =  340000.
  % % % % % %   Suspended simulation;  plot data space exhausted;  SPY SPACE is required.   LIMBUF =  340000.
  +++  Time-sharing disabled.   Send  user-keyed interrupt to silence alarm.
   Current values.  INDBUF  INDBEG  LIMBUF  MFLUSH  NUMDCD  KCARD1  KCARD2
                    339994      50  340000    1001      46       1      50
Plot timespan now in memory (in sec) = 4.24919985E-02   8.49850000E-02
   ++++  Begin plot-data copy from memory to disk.   MFLUSH, INDBUF, N4, Tbeg,  Tend = 1002  339994       1  -1.00000E+00
1.00000E+19
  85000      .085  -341724.21 -147116.21 4536.04752 -151652.26   -194608. 346260.259 151.201584
  85500     .0855  -300224.62 -207164.62 5182.25783 -212346.87 -93060.007 305406.881 172.741928
  86000      .086   -254064.2 -264632.28 5585.61967  -270217.9 10568.0818 259649.819 186.187322
  86500     .0865  -206777.65 -311855.84 5848.06213  -317703.9 105078.197 212625.707 194.935404
  87000      .087  -149438.88 -353457.56 5767.53118 -359225.09 204018.676 155206.412 192.251039
  87500     .0875  -84921.809  -391310.9   5368.633 -396679.53 306389.087 90290.4422 178.954433
  88000      .088  -17525.795 -426186.77 4917.33744 -431104.11 408660.973 22443.1324 163.911248
  88500     .0885  45557.4638 -452938.62 4407.39812 -457346.02 498496.082 -41150.066 146.913271
  89000      .089   101937.34 -472039.22 3935.78905 -475975.01 573976.556  -98001.55 131.192968
  89500     .0895  155783.735 -482614.58  3456.6621 -486071.24 638398.314 -152327.07  115.22207
  90000       .09  205370.797 -481551.09 2850.82848 -484401.92 686921.888 -202519.97  95.027616
  90500     .0905  255702.014 -474641.14 2203.95639  -476845.1 730343.158 -253498.06  73.465213
  91000      .091  304936.423 -461810.35 1854.56338 -463664.91  766746.77 -303081.86 61.8187792
  91500     .0915  351305.605 -442674.03 1895.70823 -444569.74 793979.633  -349409.9 63.1902742
  92000      .092   386548.26 -413116.86 2152.43175 -415269.29 799665.119 -384395.83  71.747725
  92500     .0925  412808.817 -376330.81 2499.98283  -378830.8 789139.631 -410308.83 83.3327611
  93000      .093  429582.633 -332422.02 2755.04695 -335177.07 762004.656 -426827.59 91.8348982
  93500     .0935  438052.107 -282297.53 2894.79594 -285192.32 720349.632 -435157.31 96.4931979
  94000      .094  443317.331 -229897.14 2992.30269 -232889.45 673214.474 -440325.03 99.7434231
  94500     .0945  445290.381 -174150.92 3070.97806  -177221.9 619441.299  -442219.4 102.365935
  95000      .095  441147.221 -116002.33 3099.46293 -119101.79  557149.55 -438047.76 103.315431
  95500     .0955  424127.735 -52481.872 3060.45527 -55542.327 476609.606 -421067.28 102.015176
  96000      .096  398986.029 11324.7238 2963.24654 8361.47726 387661.305 -396022.78 98.7748847
  96500     .0965  363471.539 75810.8814 2824.47347 72986.4079 287660.657 -360647.07 94.1491158
  97000      .097   322575.57 138264.047 2615.98507 135648.062 184311.522 -319959.58 87.1995022
  97500     .0975  280290.779 195683.826 2329.67893 193354.147 84606.9533  -277961.1 77.6559643
  98000      .098  236133.016  248323.32 2063.51244 246259.808 -12190.305  -234069.5  68.783748
  98500     .0985  187579.594 296647.977 1950.35618 294697.621 -109068.38 -185629.24 65.0118725
  99000      .099  131905.956 343709.004 1976.06651 341732.938 -211803.05 -129929.89 65.8688838
  99500     .0995  74181.3967 384728.335 2083.19164 382645.143 -310546.94 -72098.205 69.4397214
 100000       0.1  12572.6661 420766.925 2239.83466 418527.091 -408194.26 -10332.831 74.6611555
 100500     .1005  -47297.726 448040.516 2366.62608  445673.89 -495338.24 49664.3521 78.8875361
 101000      .101  -103051.71 464862.517 2486.59144 462375.926 -567914.22 105538.297 82.8863813
 101500     .1015  -154778.44 472182.076 2682.10768 469499.968 -626960.52 157460.551 89.4035893
 102000      .102  -204770.54 473031.683 2917.04798 470114.635 -677802.22 207687.586 97.2349328
 102500     .1025  -253878.32 469241.655 3085.67274 466155.982 -723119.98 256963.997 102.855758
 103000      .103  -298640.23 457577.849 3187.82461 454390.025 -756218.08 301828.058  106.26082
 103500     .1035  -339841.62 439675.365 3242.60016 436432.765 -779516.98 343084.217 108.086672
 104000      .104   -372876.8 412165.896 3235.45928 408930.437 -785042.69 376112.256 107.848643
 104500     .1045  -396733.46 375295.964 3210.02039 372085.943 -772029.43 399943.483  107.00068
 105000      .105  -412170.45 330506.547 3202.71395 327303.833 -742676.99  415373.16 106.757132
 105500     .1055  -422914.36 282174.266 3169.03251 279005.233 -705088.63 426083.396 105.634417
 106000      .106   -428590.3 231061.857 3111.92473 227949.933 -659652.15 431702.222 103.730824
 106500     .1065  -427314.94 176812.781 3068.20396 173744.577 -604127.73 430383.149 102.273465
 107000      .107  -419136.28 120837.983 3026.54031 117811.443 -539974.26 422162.816 100.884677
 107500     .1075  -401214.65 60711.8391 2981.54898 57730.2901 -461926.49 404196.196 99.3849661
 108000      .108  -374193.99 -2364.9576 2971.93938  -5336.897 -371829.03 377165.928 99.0646459
 108500     .1085  -340111.36 -66768.232 3025.88189 -69794.114 -273343.13 343137.246  100.86273
 109000      .109  -303502.37 -127662.75 3088.46445 -130751.21 -175839.62 306590.839 102.948815
 109500     .1095  -262940.38 -185088.99 3123.97645 -188212.97  -77851.39  266064.36 104.132548
 110000       .11  -218654.03 -238044.33 3108.25969 -241152.59 19390.3031  221762.29 103.608656
 110500     .1105  -170399.52 -286366.61 3034.98365 -289401.59 115967.084 173434.505 101.166122
 111000      .111  -116707.93 -331792.46 2936.63861  -334729.1 215084.533 119644.567 97.8879535
 111500     .1115  -59312.391 -373161.71 2863.35615 -376025.07 313849.318 62175.7476 95.4452052
 112000      .112  -1109.6592 -408972.74 2828.50349 -411801.25 407863.083  3938.1627 94.2834498
 112500     .1125  53587.6687 -435489.95 2766.65225  -438256.6  489077.62 -50821.016 92.2217418
 113000      .113  106527.131 -454107.69 2647.15382 -456754.85 560634.822 -103879.98 88.2384607
 113500     .1135  156364.872 -463864.83 2485.16001 -466349.99 620229.705 -153879.71 82.8386669
 114000      .114  204307.866 -465871.42 2301.06364 -468172.48 670179.286  -202006.8 76.7021213
 114500     .1145  251200.651 -461654.76 2127.64294  -463782.4  712855.41 -249073.01 70.9214313
 115000      .115  295137.953 -450951.68 2013.74569 -452965.43 746089.633 -293124.21 67.1248562
 115500     .1155  333038.634 -432699.35 1960.90774 -434660.25 765737.979 -331077.73 65.3635914
 116000      .116  362018.426 -405141.56 1915.54385  -407057.1 767159.986 -360102.88 63.8514617
 116500     .1165  384199.218 -370633.05 1855.00215 -372488.06 754832.272 -382344.22 61.8334049
 117000      .117  398780.229 -328872.87 1780.03697 -330652.91   727653.1 -397000.19 59.3345655
 117500     .1175  407937.185 -282163.39  1681.3321 -283844.72  690100.57 -406255.85 56.0444034
 118000      .118  412346.469 -232163.89 1588.54952 -233752.44 644510.357 -410757.92 52.9516507
 118500     .1185  410826.446 -179391.51 1555.85049 -180947.36 590217.957  -409270.6 51.8616829
 119000      .119  400783.605 -122948.09 1569.36708 -124517.46 523731.699 -399214.24  52.312236
 119500     .1195  381464.509 -62902.035 1580.19803 -64482.233 444366.544 -379884.31 52.6732676
 120000       .12  355200.477 -1778.7781 1566.76795  -3345.546 356979.255 -353633.71 52.2255982
 120500     .1205  322367.106 59961.2216 1525.27408 58435.9476 262405.885 -320841.83 50.8424694
 121000      .121  285746.413 119552.141 1459.47966 118092.662 166194.272 -284286.93  48.649322
 121500     .1215  246242.435 175792.513 1413.13544 174379.378 70449.9218  -244829.3 47.1045148
 122000      .122  203507.809 228179.566 1428.90645  226750.66 -24671.757  -202078.9 47.6302151
 122500     .1225  155503.513 277908.862 1479.64096 276429.221 -122405.35 -154023.87 49.3213652
 123000      .123  103289.818 323979.684 1530.49204 322449.192 -220689.87 -101759.33 51.0164015
 123500     .1235  48965.7171 364675.455 1572.11296 363103.342 -315709.74 -47393.604 52.4037652
 124000      .124  -6103.6738 399401.227 1600.74227 397800.485  -405504.9 7704.41609 53.3580756
 124500     .1245  -59113.558 426045.719 1620.95142 424424.768 -485159.28 60734.5095  54.031714
 125000      .125  -109303.75 444391.996 1662.91504 442729.081 -553695.75 110966.666 55.4305015
 125500     .1255  -156989.61 454701.286 1749.54473 452951.741  -611690.9 158739.157 58.3181577
 126000      .126  -203929.13  458879.23 1850.71963  457028.51 -662808.36 205779.846 61.6906544
 126500     .1265  -248211.52 456017.141 1939.78912 454077.352 -704228.66 250151.312 64.6596374
 127000      .127   -288540.9 445766.255 2009.78128 443756.474 -734307.16 290550.685 66.9927093
  % % % % % %   Suspended simulation;  plot data space exhausted;  SPY SPACE is required.   LIMBUF =  340000.
  % % % % % %   Suspended simulation;  plot data space exhausted;  SPY SPACE is required.   LIMBUF =  340000.
  +++  Time-sharing disabled.   Send  user-keyed interrupt to silence alarm.
   Current values.  INDBUF  INDBEG  LIMBUF  MFLUSH  NUMDCD  KCARD1  KCARD2
                    339994      50  340000    1002      46       1      50
Plot timespan now in memory (in sec) = 8.49839970E-02   1.27477000E-01
   ++++  Begin plot-data copy from memory to disk.   MFLUSH, INDBUF, N4, Tbeg,  Tend = 1003  339994       1  -1.00000E+00
1.00000E+19
 127500     .1275  -323384.86 427886.083  2053.7552 425832.328 -751270.94 325438.611 68.4585067
 128000      .128   -350783.3 401470.678 2079.46989 399391.209 -752253.98 352862.767 69.3156631
 128500     .1285  -370758.52 367344.047 2117.60317 365226.444 -738102.57 372876.126 70.5867722
 129000      .129  -384355.85  326915.76 2182.71075 324733.049 -711271.61 386538.559 72.7570249
 129500     .1295  -393338.31 282653.331 2243.52953 280409.802 -675991.64 395581.838 74.7843175
 130000       .13  -396056.02 234144.075 2279.24635 231864.828  -630200.1 398335.269 75.9748785
 130500     .1305  -392316.06  182128.46 2291.06049   179837.4 -574444.52 394607.125 76.3686829
 131000      .131  -381098.09 126697.127 2278.84063 124418.286 -507795.21 383376.927 75.9613542
 131500     .1315  -361731.57 67974.0267 2257.00349 65717.0232 -429705.59  363988.57 75.2334497
 132000      .132  -335215.25 7348.04685 2254.42803 5093.61883  -342563.3 337469.677 75.1476009
 132500     .1325  -303604.64 -53028.048 2269.67435 -55297.723 -250576.59 305874.314 75.6558117
 133000      .133   -268688.8 -110927.67 2269.94511 -113197.61 -157761.13 270958.746 75.6648371
 133500     .1335  -229575.16 -166542.36  2242.3537 -168784.71 -63032.801  231817.51 74.7451232
 134000      .134  -186832.57 -218884.67 2192.35019 -221077.02 32052.0917 189024.924 73.0783397
 134500     .1345  -140021.83 -268050.21 2121.94274 -270172.15 128028.379  142143.77 70.7314246
 135000      .135  -89545.997 -313653.68 2047.41886  -315701.1 224107.688 91593.4157 68.2472955
 135500     .1355  -37022.169 -354568.43 1994.06418  -356562.5 317546.262 39016.2333 66.4688059
 136000      .136  14897.5837 -388773.04 1950.88238 -390723.93 403670.627 -12946.701 65.0294125
 136500     .1365  64882.5962 -415145.99 1890.36318 -417036.35 480028.585 -62992.233  63.012106
 137000      .137  113344.703 -434187.12 1806.10873 -435993.23 547531.823 -111538.59 60.2036243
 137500     .1375  159703.017 -445585.89 1703.98462 -447289.87 605288.906 -157999.03 56.7994873
 138000      .138  204271.395 -450161.15 1590.84799   -451752. 654432.545 -202680.55 53.0282664
 138500     .1385  246321.439 -447984.25 1487.93112 -449472.18 694305.687 -244833.51 49.5977042
 139000      .139  284334.085 -438723.88 1416.75334 -440140.64 723057.968 -282917.33 47.2251113
 139500     .1395  315928.084 -421144.33 1359.74913 -422504.08 737072.413 -314568.33 45.3249709
 140000       .14  340830.754 -395582.93 1292.52967 -396875.46 736413.689 -339538.22 43.0843225
 140500     .1405   359559.03 -363130.39 1211.74345 -364342.13 722689.416 -358347.29 40.3914483
 141000      .141  372239.651   -324501. 1122.93308 -325623.93 696740.651 -371116.72 37.4311028
 141500     .1415  379613.015  -281230.9 1036.03871 -282266.94 660843.913 -378576.98 34.5346235
 142000      .142  381343.808 -233985.43 972.264712 -234957.69 615329.236 -380371.54 32.4088237
 142500     .1425  376522.704 -183107.69 944.427284 -184052.12 559630.398 -375578.28 31.4809095
 143000      .143  363711.923 -128180.75 930.258354 -129111.01 491892.676 -362781.66 31.0086118
 143500     .1435  343878.661 -70588.642  908.87754  -71497.52 414467.303 -342969.78  30.295918
 144000      .144   318010.02 -11702.512 879.810908 -12582.323 329712.532 -317130.21 29.3270303
 144500     .1445  287160.671 47157.6643    847.444 46310.2203 240003.007 -286313.23 28.2481333
 145000      .145   252585.18 104338.171 822.051584  103516.12 148247.008 -251763.13 27.4017195
 145500     .1455  214503.296 159057.531 823.791958 158233.739 55445.7653  -213679.5 27.4597319
 146000      .146  172566.875  210996.31 858.039015 210138.271 -38429.435 -171708.84 28.6013005
 146500     .1465  126346.701 260295.041 901.443764 259393.598 -133948.34 -125445.26 30.0481255
 147000      .147  77600.2982 305457.424 937.072083 304520.352 -227857.13 -76663.226 31.2357361
 147500     .1475  27608.8883 345501.489 965.713338 344535.776  -317892.6 -26643.175 32.1904446
 148000      .148  -22089.817 379303.071 990.483981 378312.587 -401392.89 23080.3008 33.0161327
 148500     .1485  -70203.459 405884.509 1021.75392 404862.755 -476087.97 71225.2132 34.0584641
 149000      .149  -116380.12 425046.021 1077.62402 423968.397 -541426.14  117457.74 35.9208007
 149500     .1495  -160943.05 437233.983 1155.57469 436078.409 -598177.04 162098.626 38.5191563
 150000       .15  -203821.37  442907.58 1232.01478 441675.565 -646728.95  205053.38 41.0671595
 150500     .1505  -243321.08 441271.936 1294.10143 439977.834 -684593.02 244615.186 43.1367144
 151000      .151  -278422.02 432214.895 1343.59797 430871.297 -710636.92  279765.62  44.786599
 151500     .1515  -307862.15 415379.925 1383.86607 413996.059 -723242.07 309246.015 46.1288691
 152000      .152  -330975.83 390875.773 1425.59229 389450.181 -721851.61 332401.425 47.5197429
 152500     .1525  -347908.29 359405.713 1483.50347  357922.21   -707314. 349391.791 49.4501158
 153000      .153  -359540.07 322375.759 1549.26071 320826.498 -681915.83 361089.333 51.6420237
 153500     .1535  -365907.65 280699.222 1601.98975 279097.232 -646606.87 367509.639 53.3996584
 154000      .154  -366073.87 234458.737 1634.30703  232824.43 -600532.61  367708.18 54.4769009
 154500     .1545  -359715.94 184292.034  1649.3933 182642.641 -544007.98 361365.338 54.9797766
 155000      .155  -346364.96 130541.697 1652.03081 128889.666 -476906.66 348016.994 55.0676936
 155500     .1555  -326316.24 74108.7285 1653.80624 72454.9223 -400424.97 327970.043 55.1268748
 156000      .156  -300514.43 16275.6088 1666.00155 14609.6072 -316790.03 302180.427 55.5333851
 156500     .1565  -270515.16 -41101.819 1677.12091  -42778.94 -229413.34 272192.281 55.9040304
 157000      .157  -236670.08 -97098.076 1670.03582 -98768.112   -139572. 238340.115 55.6678608
 157500     .1575   -198894.9 -151265.74 1642.08781 -152907.83 -47629.159 200536.991 54.7362602
 158000      .158  -157495.35 -202889.09 1597.80047 -204486.89 45393.7411 159093.149 53.2600155
 158500     .1585  -112721.31 -251538.27 1543.76001 -253082.03 138816.959 114265.072 51.4586669
 159000      .159  -65556.033 -296298.52 1492.50439 -297791.03 230742.489 67048.5379 49.7501462
 159500     .1595  -17462.202 -336028.46 1451.39479 -337479.85 318566.254 18913.5971 48.3798265
 160000       .16  29805.1953 -369281.16  1407.2133 -370688.37 399086.357 -28397.982 46.9071099
 160500     .1605   75888.108 -395782.14 1346.75848 -397128.89 471670.244  -74541.35 44.8919492
 161000      .161  120523.638 -415462.83 1271.30421 -416734.13 535986.468 -119252.33  42.376807
 161500     .1615   163325.69 -428256.06 1186.68752 -429442.75 591581.752   -162139. 39.5562506
 162000      .162  203885.293 -434281.11 1100.84517 -435381.95 638166.398 -202784.45 36.6948389
 162500     .1625  241212.824 -433293.37 1026.34913 -434319.72 674506.195 -240186.48 34.2116377
 163000      .163  273970.214 -424855.57 966.198102 -425821.77 698825.786 -273004.02 32.2066034
 163500     .1635  300939.479 -408519.35 906.468487 -409425.82 709458.829 -300033.01 30.2156162
 164000      .164  322272.854 -384982.87 837.555111 -385820.43 707255.727  -321435.3 27.9185037
 164500     .1645  338039.577  -354926.4 762.880999 -355689.28 692965.976  -337276.7 25.4293666
 165000      .165  348369.788 -319165.63 688.469412  -319854.1 667535.417 -347681.32 22.9489804
 165500     .1655  353267.382 -278511.32 622.429536 -279133.75 631778.707 -352644.95 20.7476512
 166000      .166   352314.55 -233478.14 575.829022 -234053.97 585792.686 -351738.72 19.1943007
 166500     .1665  344804.365 -184307.58 546.986435 -184854.57 529111.949 -344257.38 18.2328812
 167000      .167  330516.006 -131461.16 521.572892 -131982.73 461977.167 -329994.43 17.3857631
 167500     .1675  310351.134 -76288.337 492.589196 -76780.926 386639.471 -309858.55 16.4196399
 168000      .168  285028.542 -19937.834 463.868464 -20401.702 304966.375 -284564.67 15.4622821
 168500     .1685  255363.506 36328.2473 440.834003 35887.4133 219035.258 -254922.67 14.6944668
 169000      .169  221903.255 91480.8598 431.056693 91049.8032 130422.395  -221472.2 14.3685564
 169500     .1695  184853.767 144793.507 442.811586 144350.696 40060.2594 -184410.96 14.7603862
  % % % % % %   Suspended simulation;  plot data space exhausted;  SPY SPACE is required.   LIMBUF =  340000.
  % % % % % %   Suspended simulation;  plot data space exhausted;  SPY SPACE is required.   LIMBUF =  340000.
  +++  Time-sharing disabled.   Send  user-keyed interrupt to silence alarm.
   Current values.  INDBUF  INDBEG  LIMBUF  MFLUSH  NUMDCD  KCARD1  KCARD2
                    339994      50  340000    1003      46       1      50
Plot timespan now in memory (in sec) = 1.27476007E-01   1.69969000E-01
   ++++  Begin plot-data copy from memory to disk.   MFLUSH, INDBUF, N4, Tbeg,  Tend = 1004  339994       1  -1.00000E+00
1.00000E+19
 170000       .17  144133.551 195922.155 470.102917 195452.052 -51788.604 -143663.45 15.6700972
 170500     .1705  100371.341 244155.221 498.765152 243656.456 -143783.88 -99872.576 16.6255051
 171000      .171  54925.3853 288256.922 523.944365 287732.978 -233331.54 -54401.441 17.4648122
 171500     .1715  8898.09296 327303.049 549.206856 326753.842 -318404.96 -8348.8861 18.3068952
 172000      .172  -36605.608 360362.933 579.164197 359783.769 -396968.54 37184.7725 19.3054732
 172500     .1725  -80894.766  386905.83 620.578148 386285.252  -467800.6  81515.344 20.6859383
 173000      .173  -123623.51 406732.177 678.415531 406053.762 -530355.68 124301.921  22.613851
 173500     .1735  -164723.44 420051.401 743.607451 419307.793 -584774.84 165467.047  24.786915
 174000      .174    -203342. 426606.833 803.159732 425803.674 -629948.84 204145.163 26.7719911
 174500     .1745  -238304.98 425935.412 854.318863 425081.093  -664240.4 239159.303 28.4772954
 175000      .175  -268734.89 417882.444 900.495522 416981.948 -686617.34 269635.387 30.0165174
 175500     .1755  -293893.13 402378.409 945.880223 401432.529 -696271.54 294839.007 31.5293408
 176000      .176  -313536.96 379783.577 996.790833 378786.786 -693320.54 314533.754 33.2263611
 176500     .1765  -327793.54 350775.543 1055.35794 349720.185 -678569.08 328848.899 35.1785981
 177000      .177   -336974.4 316318.105 1111.18683 315206.919  -653292.5 338085.583  37.039561
 177500     .1775  -340628.35 276823.692 1153.67275  275670.02 -617452.05 341782.026 38.4557585
 178000      .178  -338281.57 232675.876 1182.44365 231493.433 -570957.45 339464.013 39.4147884
 178500     .1785  -329734.29 184450.631 1201.43199 183249.199 -514184.92 330935.721 40.0477329
 179000      .179   -315023.4 132829.903 1215.19174 131614.711 -447853.31 316238.596 40.5063914
 179500     .1795  -294650.67 78819.3874  1230.0401 77589.3473 -373470.06  295880.71 41.0013366
 180000       .18  -269462.96 23664.6174 1246.03374 22418.5837 -293127.57 270708.989 41.5344579
 180500     .1805  -240288.17 -31349.639 1252.99657 -32602.636 -208938.53 241541.166 41.7665524
 181000      .181  -207247.86 -85553.459 1243.57505 -86797.034  -121694.4 208491.436 41.4525018
 181500     .1815  -170575.34 -138263.27 1219.80157 -139483.07 -32312.069 171795.139 40.6600522
 182000      .182  -130687.32 -188766.78 1186.48517 -189953.26 58079.4579 131873.803 39.5495058
 182500     .1825  -88250.074 -236277.28 1148.90044 -237426.18 148027.206 89398.9748 38.2966814
 183000      .183  -44265.595 -279846.15 1113.23823 -280959.39 235580.557 45378.8328 37.1079411
 183500     .1835  16.1578366  -318387.5 1077.97278 -319465.47 318403.657 1061.81494 35.9324259
 184000      .184  43630.6235   -351044. 1033.98469 -352077.99 394674.625 -42596.639 34.4661562
 184500     .1845  86247.7258 -377566.73 977.161922 -378543.89 463814.455 -85270.564 32.5720641
 185000      .185   127421.09  -397706.7 911.327302 -398618.03 525127.793 -126509.76 30.3775767
 185500     .1855  166633.211 -411300.07 841.853549 -412141.93 577933.285 -165791.36  28.061785
 186000      .186  203162.435 -418128.76 774.447815 -418903.21 621291.196 -202387.99 25.8149272
 186500     .1865  236104.514 -417923.76 714.451615 -418638.21 654028.271 -235390.06 23.8150538
 187000      .187  264440.689 -410345.38 658.772445 -411004.16 674786.072 -263781.92 21.9590815
 187500     .1875  287667.944   -395458. 599.371669 -396057.37 683125.943 -287068.57 19.9790556
 188000      .188  305808.278 -373817.58 534.544673 -374352.13 679625.861 -305273.73 17.8181558
 188500     .1885  318803.754  -345965.6 468.830431 -346434.43 664769.351 -318334.92  15.627681
 189000      .189  326588.115 -312525.95 407.358765 -312933.31 639114.065 -326180.76 13.5786255
 189500     .1895  328931.847 -274029.44 355.466236 -274384.91 602961.286 -328576.38 11.8488745
 190000       .19  325515.393 -230956.08 316.629423 -231272.71 556471.476 -325198.76 10.5543141
 190500     .1905  316015.722 -183718.58 285.964131 -184004.54 499734.299 -315729.76 9.53213771
 191000      .191   300730.46 -133165.46 256.166035 -133421.62 433895.916 -300474.29 8.53886784
 191500     .1915   280312.38 -80424.664 226.847451 -80651.511 360737.044 -280085.53 7.56158172
 192000      .192  255333.763 -26540.237 202.229936 -26742.467    281874. -255131.53 6.74099788
 192500     .1925  226328.892  27469.405 186.450976 27282.9541 198859.487 -226142.44 6.21503252
 193000      .193  193661.195  80764.927  183.73283 80581.1941 112896.268 -193477.46 6.12442767
 193500     .1935  157600.303 132643.824 195.063423 132448.761 24956.4786 -157405.24 6.50211409
 194000      .194  118470.831 182497.886 213.875526 182284.011 -64027.055 -118256.96  7.1291842
 194500     .1945  77174.7094 229358.598 233.496342 229125.102 -152183.89 -76941.213  7.7832114
 195000      .195  34755.5071 272208.612 254.154068 271954.458  -237453.1 -34501.353 8.47180227
 195500     .1955  -7878.7301 310196.797  279.29553 309917.502 -318075.53 8158.02559 9.30985101
 196000      .196  -49959.144 342630.529  311.92586 342318.603 -392589.67 50271.0701 10.3975287
 196500     .1965  -90933.812 369066.501 354.965224 368711.536 -460000.31 91288.7768 11.8321741
 197000      .197  -130408.09 389284.188 407.074521 388877.114 -519692.28 130815.164 13.5691507
 197500     .1975  -167905.73 403146.572 460.718138 402685.854  -571052.3 168366.447 15.3572713
 198000      .198  -202510.67 410251.469 510.257734 409741.211 -612762.14 203020.932 17.0085911
 198500     .1985  -233361.67 410301.838 556.503543 409745.335  -643663.5 233918.169 18.5501181
 199000      .199  -259799.55 403195.575 602.379295 402593.196 -662995.13 260401.932 20.0793098
 199500     .1995  -281404.84 389055.119 650.271924 388404.847 -670459.96  282055.11 21.6757308
 200000       0.2  -298007.57 368244.796 702.181372 367542.614 -666252.36  298709.75 23.4060457
 200500     .2005  -309638.97 341356.016 755.274724 340600.741 -650994.99 310394.244 25.1758241
 201000      .201  -316205.14 308969.446 802.199602 308167.246 -625174.59 317007.341 26.7399867
 201500     .2015  -317314.77 271444.976 839.058382 270605.917 -588759.75  318153.83 27.9686127
 202000      .202  -312743.49 229275.461 867.629224 228407.832 -542018.96 313611.123 28.9209741
 202500     .2025  -302488.87  183093.94  890.91423 182203.025 -485582.81 303379.789  29.697141
 203000      .203  -286817.05 133719.579 911.417178 132808.162 -420536.63 287728.463 30.3805726
 203500     .2035  -266215.37 82120.3819 930.772782 81189.6091 -348335.75 267146.143 31.0257594
 204000      .204  -241334.39 29397.0137 945.630886 28451.3828 -270731.41 242280.023 31.5210295
 204500     .2045  -212610.12 -23518.918 949.857874 -24468.776  -189091.2 213559.974 31.6619291
 205000      .205  -180266.21 -75927.334 941.763832 -76869.098 -104338.88 181207.973 31.3921277
 205500     .2055  -144696.64  -127064.3 924.335125 -127988.64  -17632.33  145620.97 30.8111708
 206000      .206  -106469.12 -176127.96 901.030059 -177028.99 69658.8408 107370.153 30.0343353
 206500     .2065  -66359.351 -222233.02 874.835718 -223107.85 155873.665 67234.1872 29.1611906
 207000      .207  -25274.188 -264467.31 847.228198 -265314.53 239193.117 26121.4163 28.2409399
 207500     .2075  15836.1664  -301923.2 814.881364 -302738.08 317759.362 -15021.285 27.1627121
 208000      .208  56349.2672 -334007.38 773.289236 -334780.67 390356.646 -55575.978 25.7763079
 208500     .2085  95826.0906  -360368.9 722.789008 -361091.69 456194.995 -95103.302 24.0929669
 209000      .209  133724.354 -380673.82 667.271092  -381341.1 514398.179 -133057.08 22.2423697
 209500     .2095  169409.634 -394623.82 610.458918 -395234.28 564033.457 -168799.17 20.3486306
 210000       .21  202143.753 -401920.94 555.529221 -402476.47 604064.698 -201588.22 18.5176407
 210500     .2105  231160.031 -402311.17 503.456848 -402814.62 633471.199 -230656.57 16.7818949
 211000      .211  255790.613 -395642.29 450.870592 -396093.16 651432.902 -255339.74 15.0290197
 211500     .2115  275771.248 -382127.61 394.597422  -382522.2 657898.855 -275376.65 13.1532474
 212000      .212  290998.169 -362172.44 336.211265 -362508.65 653170.607 -290661.96 11.2070422
  % % % % % %   Suspended simulation;  plot data space exhausted;  SPY SPACE is required.   LIMBUF =  340000.
  % % % % % %   Suspended simulation;  plot data space exhausted;  SPY SPACE is required.   LIMBUF =  340000.
  +++  Time-sharing disabled.   Send  user-keyed interrupt to silence alarm.
   Current values.  INDBUF  INDBEG  LIMBUF  MFLUSH  NUMDCD  KCARD1  KCARD2
                    339994      50  340000    1004      46       1      50
Plot timespan now in memory (in sec) = 1.69967994E-01   2.12461000E-01
   ++++  Begin plot-data copy from memory to disk.   MFLUSH, INDBUF, N4, Tbeg,  Tend = 1005  339994       1  -1.00000E+00
1.00000E+19
 212500     .2125  301326.815 -336213.39 279.715955 -336493.11 637540.208  -301047.1 9.32386516
 213000      .213  306573.342 -304710.73 228.463956  -304939.2 611284.075 -306344.88 7.61546518
 213500     .2135  306525.334 -268128.92 185.082889 -268314.01 574654.259 -306340.25 6.16942962
 214000      .214  300996.569 -226953.76 149.422281 -227103.18 527950.325 -300847.15 4.98074271
 214500     .2145  289991.823 -181784.84 117.688975 -181902.53 471776.666 -289874.13 3.92296585
 215000      .215  273904.269 -133519.04  87.423198 -133606.47 407423.313 -273816.85  2.9141066
 215500     .2155  253221.543 -83122.416 60.4954143 -83182.911 336343.958 -253161.05 2.01651381
 216000      .216  228390.714 -31524.207 40.2137118 -31564.421 259914.921  -228350.5 1.34045706
 216500     .2165  199804.617 20412.1539  28.962387 20383.1915 179392.463 -199775.65 .965412901
 217000      .217  167830.157 71888.5456 28.1791948 71860.3664 95941.6118 -167801.98 .939306493
 217500     .2175  132843.643 122172.649  36.205011 122136.444 10670.9944 -132807.44  1.2068337
 218000      .218  95422.9291 170467.687 48.6639727 170419.023 -75044.757 -95374.265 1.62213242
 218500     .2185  56425.7371 215817.553 63.4165946 215754.137 -159391.82  -56362.32 2.11388649
 219000      .219    16692.02 257339.642 82.0894968 257257.552 -240647.62  -16609.93 2.73631656
 219500     .2195  -23041.281 294285.069 106.972053 294178.097 -317326.35 23148.2528 3.56573511
 220000       .22  -62157.995 326069.343 139.373512 325929.969 -388227.34 62297.3684 4.64578373
 220500     .2205  -100121.23 352250.285 179.450595 352070.834 -452371.51 100300.678  5.9816865
 221000      .221  -136439.78 372524.341   224.2599 372300.081 -508964.12 136664.036 7.47533001
 221500     .2215  -170463.71  386564.53 269.218126 386295.312 -557028.24 170732.931 8.97393754
 222000      .222  -201410.03 394003.292 312.636623 393690.656 -595413.32 201722.664 10.4212208
 222500     .2225  -228625.02 394631.312 355.981461 394275.331 -623256.33 228981.002 11.8660487
 223000      .223  -251630.63  388421.47  400.83414 388020.636  -640052.1 252031.462  13.361138
 223500     .2235  -270128.56 375541.713 447.881963 375093.831 -645670.28 270576.444 14.9293988
 224000      .224  -283949.07 356315.786 496.486711 355819.299 -640264.86 284445.558  16.549557
 224500     .2245  -292997.22 331195.666 543.177102 330652.488 -624192.89 293540.397 18.1059034
 225000      .225  -297055.29 300585.877 583.939068 300001.938 -597641.17 297639.231 19.4646356
 225500     .2255   -295882.9  264886.33 618.026141 264268.304 -560769.23 296500.925 20.6008714
 226000      .226    -289421. 224639.423 647.208072 223992.215 -514060.42 290068.207 21.5736024
 226500     .2265  -277807.87 180530.805 672.994034 179857.811 -458338.67 278480.861 22.4331345
 227000      .227  -261357.73 133377.351 696.103963 132681.248 -394735.09 262053.839 23.2034654
 227500     .2275  -240504.48 84082.0531 715.771154 83366.2819 -324586.53 241220.253 23.8590385
 228000      .228   -215715.3 33576.0338 728.826045 32847.2077 -249291.33 216444.126 24.2942015
 228500     .2285  -187322.38 -17342.786 732.524543 -18075.311 -169979.59 188054.903 24.4174848
 229000      .229  -155667.54 -67922.677 727.444147 -68650.122 -87744.862 156394.983 24.2481382
 229500     .2295  -121244.28 -117358.78  715.99831 -118074.78 -3885.4932 121960.275 23.8666103
 230000       .23  -84693.349 -164799.77 700.059328 -165499.83 80106.4194 85393.4083 23.3353109
 230500     .2305  -46757.269 -209377.35 680.730041 -210058.08 162620.085 47437.9989 22.6910014
 231000      .231  -8225.7721 -250243.28 657.461565 -250900.74 242017.511 8883.23368 21.9153855
 231500     .2315  30179.5097 -286650.16 627.795348 -287277.95 316829.667 -29551.714 20.9265116
 232000      .232  67921.7532  -318069.7 590.432358 -318660.14 385991.458 -67331.321 19.6810786
 232500     .2325  104482.289 -344074.31 547.149386 -344621.46 448556.595 -103935.14 18.2383129
 233000      .233  139268.235 -364269.11 500.849642 -364769.96 503537.348 -138767.39 16.6949881
 233500     .2335  171626.146  -378293.4 453.667911 -378747.07 549919.549 -171172.48 15.1222637
 234000      .234  200898.973 -385853.33 406.876275  -386260.2 586752.301  -200492.1 13.5625425
 234500     .2345  226472.425 -386742.21 359.952882 -387102.16 613214.635 -226112.47 11.9984294
 235000      .235  247902.878  -380930.2  310.97689 -381241.17 628833.075  -247591.9 10.3658963
 235500     .2355  264967.059 -368621.69 259.665769 -368881.36  633588.75 -264707.39 8.65552563
 236000      .236    277488.8 -350119.12 208.356334 -350327.48  627607.92 -277280.44 6.94521112
 236500     .2365  285277.997 -325770.86 159.839004  -325930.7  611048.86 -285118.16 5.32796682
 237000      .237  288145.378 -295964.08 115.971121 -296080.05 584109.461 -288029.41 3.86570403
 237500     .2375  285955.794 -261150.28 77.5948684 -261227.87 547106.073  -285878.2 2.58649561
 238000      .238  278665.174 -221851.93 43.7072007 -221895.64 500517.107 -278621.47 1.45690669
 238500     .2385  266441.517 -178749.83  12.441783 -178762.27 445191.344 -266429.07 .414726099
 239000      .239  249645.821   -132680. -16.154126 -132663.85 382325.823 -249661.98 -.53847085
 239500     .2395   228665.25 -84497.574 -39.952973 -84457.621 313162.824  -228705.2 -1.3317658
 240000       .24  203869.721 -35034.471 -56.917234 -34977.553 238904.192 -203926.64 -1.8972411
 240500     .2405  175626.709 14908.6652 -66.010059 14974.6752 160718.044 -175692.72 -2.2003353
 241000      .241  144342.648  64544.689 -67.332153 64612.0212 79797.9586 -144409.98 -2.2444051
 241500     .2415  110496.792 113093.268 -62.722384 113155.991 -2596.4761 -110559.51 -2.0907461
 242000      .242  74741.7221  159700.31 -54.306291 159754.616 -84958.587 -74796.028 -1.8102097
 242500     .2425  37829.2152 203484.885 -42.152797 203527.037 -165655.67 -37871.368 -1.4050932
 243000      .243  463.450667 243656.037  -24.76291   243680.8 -243192.59 -488.21358 -.82543034
 243500     .2435  -36728.605 279541.729 -1.0793503 279542.809 -316270.33 36727.5253 -.03597834
 244000      .244  -73176.706 310585.317 28.9961762 310556.321 -383762.02 73205.7026 .966539207
 244500     .2445  -108335.88 336328.609 64.3926757 336264.216 -444664.49 108400.275 2.14642252
 245000      .245  -141644.67 356389.172 102.582611 356286.589 -498033.84 141747.254 3.41942035
 245500     .2455  -172450.05 370387.299 141.346023 370245.953 -542837.35 172591.394 4.71153412
 246000      .246  -200112.89 378014.079  180.56755 377833.512 -578126.97  200293.46 6.01891834
 246500     .2465  -224122.44   379115.2 221.259697  378893.94 -603237.64 224343.695 7.37532324
 247000      .247  -244108.63 373700.945 263.825684 373437.119 -617809.58 244372.459 8.79418946
 247500     .2475  -259809.04 361923.104 307.822213 361615.281 -621732.14 260116.859 10.2607404
 248000      .248  -271039.31 344052.241 351.692626 343700.549 -615091.56 271391.007 11.7230875
 248500     .2485  -277635.17 320431.148 392.826464 320038.322 -598066.32 278027.996 13.0942155
 249000      .249  -279402.67 291412.727 429.459052 290983.268  -570815.4 279832.128 14.3153017
 249500     .2495  -276231.32 257431.801 461.871168  256969.93 -533663.12 276693.191 15.3957056
 250000       .25  -268170.35 219054.407 491.085176 218563.322 -487224.76 268661.435 16.3695059
 250500     .2505  -255420.47 176969.024 517.459273 176451.565 -432389.49 255937.926 17.2486424
 251000      .251   -238286.6  131947.06 540.614058 131406.446 -370233.66  238827.21 18.0204686
 251500     .2515  -217143.93 84814.3386 559.149371 84255.1893 -301958.27 217703.083 18.6383124
 252000      .252  -192364.36 36386.3251 571.040499 35815.2846 -228750.69 192935.404 19.0346833
 252500     .2525   -164292.7  -12574.28 575.500978 -13149.781 -151718.42   164868.2 19.1833659
 253000      .253  -133352.27 -61288.328 573.592628 -61861.921 -72063.937 133925.858 19.1197543
 253500     .2535   -100087.1 -108934.89 566.745352 -109501.63 8847.78396 100653.847 18.8915117
 254000      .254   -65135.79 -154670.68 555.696882 -155226.38  89534.893 65691.4866 18.5232294
 254500     .2545  -29177.002 -197673.18 540.489595 -198213.67 168496.178  29717.492 18.0163198
  % % % % % %   Suspended simulation;  plot data space exhausted;  SPY SPACE is required.   LIMBUF =  340000.
  % % % % % %   Suspended simulation;  plot data space exhausted;  SPY SPACE is required.   LIMBUF =  340000.
  +++  Time-sharing disabled.   Send  user-keyed interrupt to silence alarm.
   Current values.  INDBUF  INDBEG  LIMBUF  MFLUSH  NUMDCD  KCARD1  KCARD2
                    339994      50  340000    1005      46       1      50
Plot timespan now in memory (in sec) = 2.12459996E-01   2.54953000E-01
   ++++  Begin plot-data copy from memory to disk.   MFLUSH, INDBUF, N4, Tbeg,  Tend = 1006  339994       1  -1.00000E+00
1.00000E+19
 255000      .255  7109.01691 -237168.41 520.224926 -237688.64 244277.429  -6588.792 17.3408309
 255500     .2555  43118.2258 -272498.25 493.754773 -272992.01  315616.48 -42624.471 16.4584924
 256000      .256   78317.618 -303132.63 461.364011 -303593.99 381450.249 -77856.254 15.3788004
 256500     .2565   112151.37 -328601.08   424.8492 -329025.93 440752.453 -111726.52   14.16164
 257000      .257  144020.777 -348476.07 386.001485 -348862.07 492496.845 -143634.78 12.8667162
 257500     .2575  173319.534 -362392.16 345.872771 -362738.03 535711.695 -172973.66 11.5290924
 258000      .258  199483.394 -370078.46 304.786116 -370383.25 569561.859 -199178.61 10.1595372
 258500     .2585  222028.174   -371379.  262.18565 -371641.18 593407.174 -221765.99 8.73952167
 259000      .259  240615.557 -366306.35 217.561098 -366523.91 606921.904   -240398. 7.25203661
 259500     .2595  255016.608 -355019.05 171.849355  -355190.9 610035.657 -254844.76 5.72831184
 260000       .26  265027.606 -337751.98 127.076537 -337879.06 602779.589 -264900.53 4.23588458
 260500     .2605  270459.355 -314798.17 84.9261161 -314883.09 585257.522 -270374.43 2.83087054
 261000      .261  271171.882 -286521.61 46.2901249  -286567.9 557693.494 -271125.59 1.54300416
 261500     .2615  267109.782 -253372.84 11.2726022 -253384.12 520482.626 -267098.51 .375753406
 262000      .262  258334.881  -215901.4 -20.814789 -215880.58  474236.28  -258355.7 -.69382631
 262500     .2625  245067.761 -174788.34 -50.371751 -174737.97   419856.1 -245118.13 -1.6790584
 263000      .263  227623.401 -130795.46   -76.4452 -130719.02 358418.865 -227699.85 -2.5481733
 263500     .2635  206335.516 -84698.552 -97.411166 -84601.141 291034.068 -206432.93 -3.2470389
 264000      .264  181548.836 -37268.315 -112.22734 -37156.088 218817.152 -181661.06 -3.7409112
 264500     .2645  153648.678 10720.4942 -120.65264 10841.1468 142928.183 -153769.33 -4.0217546
 265000      .265  123080.998 58485.2244  -123.2468 58608.4712 64595.7739 -123204.25 -4.1082267
 265500     .2655  90379.8212 105223.497 -121.19879 105344.696 -14843.676  -90501.02 -4.0399596
 266000      .266  56181.9057 150098.452 -115.17667 150213.628 -93916.546 -56297.082 -3.8392224
 266500     .2665  21146.0123 192301.665  -104.6213 192406.286 -171155.65 -21250.634 -3.4873767
 267000      .267  -14110.555 231107.395 -88.639028 231196.034 -245217.95 14021.9159 -2.9546343
 267500     .2675  -49014.487 265883.696 -67.018888 265950.715 -314898.18 48947.4685 -2.2339629
 268000      .268  -83009.674 296078.835 -40.286517 296119.121 -379088.51 82969.3876 -1.3428839
 268500     .2685  -115544.74 321217.181 -9.6925991 321226.874 -436761.92 115535.046 -.32308664
 269000      .269  -146046.03 340878.506 23.1370961 340855.369 -486924.53 146069.163 .771236537
 269500     .2695  -173923.36 354692.294 57.3286767 354634.965 -528615.65 173980.685 1.91095589
 270000       .27   -198651.1 362395.494 93.1143426  362302.38 -561046.59 198744.213 3.10381142
 270500     .2705   -219812.7 363865.549 130.830291 363734.718 -583678.24 219943.526 4.36100971
 271000      .271  -237091.41 359115.029 170.150751 358944.878 -596206.44 237261.557  5.6716917
 271500     .2715  -250240.78  348267.52 210.136285 348057.384  -598508.3 250450.918 7.00454283
 272000      .272  -259069.36 331543.751 249.271428 331294.479 -590613.11  259318.63  8.3090476
 272500     .2725  -263409.38  309228.23 285.968098 308942.262 -572637.61 263695.344 9.53226994
 273000      .273  -263133.78 281666.934 319.582524 281347.351 -544800.71 263453.362 10.6527508
 273500     .2735  -258224.28 249310.456 350.442952 248960.013 -507534.74 258574.727 11.6814317
 274000      .274   -248792.9  212724.92 378.823801 212346.096 -461517.82 249171.724   12.62746
 274500     .2745  -235057.04 172569.671 404.414276 172165.256 -407626.72 235461.459 13.4804759
 275000      .275  -217304.77 129564.712 426.415399 129138.297 -346869.48 217731.183 14.2138466
 275500     .2755   -195870.9  84466.677 443.617129 84023.0599 -280337.58 196314.519 14.7872376
 276000      .276  -171102.41 38029.0047 455.011528 37573.9931 -209131.41 171557.417 15.1670509
 276500     .2765  -143381.34 -8995.1567 460.630801 -9455.7875 -134386.18 143841.968   15.35436
 277000      .277  -113175.21 -55822.477 461.292463  -56283.77 -57352.729 113636.498 15.3764154
 277500     .2775  -81038.367 -101642.33 457.620517 -102099.95  20603.963 81495.9872 15.2540172
 278000      .278  -47575.173 -145647.14 449.714064 -146096.85 98071.9632  48024.887 14.9904688
 278500     .2785  -13403.712 -187063.71 437.257975 -187500.97    173660. 13840.9698 14.5752658
 279000      .279  20874.0248 -225179.36 419.652879 -225599.02 246053.388 -20454.372 13.9884293
 279500     .2795  54702.4538 -259375.13 396.687594 -259771.81  314077.58 -54305.766 13.2229198
 280000       .28  87542.7474 -289110.88 369.157186 -289480.04 376653.628  -87173.59 12.3052395
 280500     .2805  118836.008 -313898.72 338.386874  -314237.1 432734.726 -118497.62 11.2795625
 281000      .281  148012.994 -333307.53  305.35787 -333612.89 481320.525 -147707.64 10.1785957
 281500     .2815   174533.15 -346989.17 270.537245 -347259.71 521522.322 -174262.61 9.01790818
 282000      .282  197914.557 -354698.12  233.98874 -354932.11 552612.682 -197680.57 7.79962466
 282500     .2825  217761.626 -356310.13  195.56893  -356505.7 574071.752 -217566.06 6.51896434
 283000      .283  233780.938 -351837.36 155.611098 -351992.97 585618.301 -233625.33  5.1870366
 283500     .2835  245741.742 -341397.23 115.311942 -341512.54 587138.974 -245626.43 3.84373141
 284000      .284  253445.056 -325182.51 76.1078455 -325258.62 578627.564 -253368.95 2.53692818
 284500     .2845   256734.92 -303460.09 38.9484647 -303499.03 560195.005 -256695.97 1.29828216
 285000      .285  255529.952 -276585.87 4.25249761 -276590.12  532115.82  -255525.7  .14174992
 285500     .2855  249841.069  -245009.4 -27.977726 -244981.42 494850.467 -249869.05 -.93259086
 286000      .286  239789.994 -209281.61 -57.884823 -209223.73 449071.606 -239847.88 -1.9294941
 286500     .2865  225604.895 -170049.68 -85.102855 -169964.58  395654.58   -225690. -2.8367618
 287000      .287  207571.189 -128013.26 -108.58974 -127904.67  335584.45 -207679.78 -3.6196579
 287500     .2875  186002.499 -83892.451 -127.32272 -83765.128  269894.95 -186129.82 -4.2440907
 288000      .288  161249.251 -38422.542 -140.85278 -38281.689 199671.793  -161390.1 -4.6950927
 288500     .2885  133719.321 7639.98369 -149.25442 7789.23811 126079.337 -133868.58 -4.9751475
 289000      .289  103884.396 53521.4805 -152.99621 53674.4767 50362.9153 -104037.39 -5.0998736
 289500     .2895  72288.4277 98429.1351  -152.5959  98581.731 -26140.707 -72441.024 -5.0865301
 290000       .29  39525.8231 141568.714 -148.03422 141716.748 -102042.89 -39673.857 -4.9344739
 290500     .2905  6188.98757 182189.383 -138.78084 182328.164  -176000.4 -6327.7684 -4.6260279
 291000      .291  -27156.207 219609.537  -124.4951 219734.032 -246765.74 27031.7122 -4.1498366
 291500     .2915  -59961.531 253217.422 -105.40639 253322.829 -313178.95 59856.1242 -3.5135465
 292000      .292  -91682.532 282465.056 -82.199518 282547.255 -374147.59 91600.3328 -2.7399839
 292500     .2925  -121776.16 306869.417 -55.861538 306925.279 -428645.57 121720.294 -1.8620513
 293000      .293  -149697.21 326007.331 -27.280413 326034.611 -475704.54 149669.928  -.9093471
 293500     .2935   -174928.2 339534.041 3.24085169   339530.8 -514462.24 174931.443  .10802839
 294000      .294  -197024.85 347216.835  35.794775 347181.041 -544241.68 197060.642 1.19315917
 294500     .2945  -215629.45 348945.882 70.2129668 348875.669 -564575.34 215699.667 2.34043223
 295000      .295  -230455.49 344722.344 105.841025 344616.503 -575177.84 230561.333 3.52803417
 295500     .2955  -241273.14  334644.56 141.688569 334502.871  -575917.7 241414.833 4.72295232
 296000      .296  -247902.34  318898.28 176.607877 318721.673 -566800.62 248078.946 5.88692922
 296500     .2965  -250208.05 297743.585 209.721904 297533.864 -547951.64 250417.773 6.99073015
 297000      .297  -248128.42 271527.042 240.782244  271286.26 -519655.46   248369.2  8.0260748
  % % % % % %   Suspended simulation;  plot data space exhausted;  SPY SPACE is required.   LIMBUF =  340000.
  % % % % % %   Suspended simulation;  plot data space exhausted;  SPY SPACE is required.   LIMBUF =  340000.
  +++  Time-sharing disabled.   Send  user-keyed interrupt to silence alarm.
   Current values.  INDBUF  INDBEG  LIMBUF  MFLUSH  NUMDCD  KCARD1  KCARD2
                    339994      50  340000    1006      46       1      50
Plot timespan now in memory (in sec) = 2.54952013E-01   2.97445000E-01
   ++++  Begin plot-data copy from memory to disk.   MFLUSH, INDBUF, N4, Tbeg,  Tend = 1007  339994       1  -1.00000E+00
1.00000E+19
 297500     .2975  -241705.39 240698.935 269.848362 240429.087 -482404.33 241975.242 8.99494541
 298000      .298  -231082.56 205807.266 296.706854 205510.559 -436889.82 231379.264 9.89022846
 298500     .2985  -216479.92 167473.302 320.770067 167152.532 -383953.22 216800.685 10.6923356
 299000      .299  -198174.64 126370.094 341.236942 126028.857 -324544.74  198515.88 11.3745647
 299500     .2995  -176486.11 83202.8408 357.293474 82845.5473 -259688.96 176843.408 11.9097825
 300000       0.3  -151768.63 38691.5727 368.532566 38323.0401  -190460.2 152137.158 12.2844189
 300500     .3005  -124433.68  -6421.406 375.167701 -6796.5737 -118012.27 124808.845   12.50559
 301000      .301  -94965.179 -51365.982 377.616339 -51743.599 -43599.196  95342.795 12.5872113
 301500     .3015  -63903.862 -95359.952 376.013068 -95735.965 31456.0895 64279.8755 12.5337689
 302000      .302  -31815.892 -137637.43 370.198403 -138007.63  105821.54 32186.0899 12.3399468
 302500     .3025  728.850292 -177470.21 359.875515 -177830.08 178199.057 -368.97478 11.9958505
 303000      .303  33175.5769 -214188.06 344.827982 -214532.89 247363.635 -32830.749 11.4942661
 303500     .3035  64989.6966 -247190.37 325.301287 -247515.68 312180.071 -64664.395 10.8433762
 304000      .304  95637.4636 -275935.61  302.07181 -276237.68 371573.075 -95335.392 10.0690603
 304500     .3045  124579.897  -299937.2 275.975205 -300213.18 424517.102 -124303.92  9.1991735
 305000      .305  151293.622 -318777.88 247.524135  -319025.4 470071.498  -151046.1  8.2508045
 305500     .3055  175299.896  -332130.7 216.960285 -332347.66 507430.593 -175082.94  7.2320095
 306000      .306  196181.968   -339771. 184.404251  -339955.4 535952.964 -195997.56 6.14680838
 306500     .3065  213599.339  -341587.3 150.088143 -341737.39 555186.636 -213449.25 5.00293809
 307000      .307  227283.494 -337578.58 114.678943 -337693.25  564862.07 -227168.82 3.82263143
 307500     .3075  237015.832 -327834.25 79.2188178 -327913.47 564850.081 -236936.61 2.64062726
 308000      .308  242622.572 -312523.95  44.642607  -312568.6 555146.525 -242577.93  1.4880869
 308500     .3085  243992.234 -291903.28 11.5057463 -291914.79 535895.516 -243980.73 .383524876
 309000      .309   241094.64  -266321.6 -19.918429 -266301.68 507416.241 -241114.56 -.66394764
 309500     .3095  233988.456 -236221.21 -49.489213 -236171.72 470209.665 -234037.95 -1.6496404
 310000       .31  222824.661 -202135.49 -76.952694 -202058.53 424960.148 -222901.61 -2.5650898
 310500     .3105  207829.377 -164671.24 -101.68642 -164569.55 372500.618 -207931.06 -3.3895474
 311000      .311  189276.689 -124480.46 -122.86076  -124357.6 313757.153 -189399.55 -4.0953588
 311500     .3115  167480.792 -82244.818 -139.89136 -82104.927  249725.61 -167620.68 -4.6630454
 312000      .312  142806.737  -38674.45 -152.60222 -38521.847 181481.187 -142959.34 -5.0867408
 312500     .3125  115678.026 5494.00131 -161.09538 5655.09669 110184.025 -115839.12 -5.3698459
 313000      .313  86574.9064 49505.4224 -165.59346 49671.0159  37069.484   -86740.5 -5.5197821
 313500     .3135  56027.5145 92595.4114 -166.18589 92761.5973 -36567.897   -56193.7 -5.5395296
 314000      .314  24589.3997 134014.555 -162.64624 134177.201 -109425.16 -24752.046 -5.4215415
 314500     .3145  -7190.8895  173056.09 -154.66557 173210.755 -180246.98 7036.22392 -5.1555189
 315000      .315  -38777.388 209068.509  -142.2448 209210.754  -247845.9 38635.1428 -4.7414935
 315500     .3155  -69639.279 241455.312 -125.75974 241581.072 -311094.59 69513.5189 -4.1919915
 316000      .316  -99249.168 269677.088 -105.80931 269782.898 -368926.26 99143.3592 -3.5269769
 316500     .3165  -127087.62 293256.485  -83.04707 293339.532  -420344.1 127004.572 -2.7682357
 317000      .317  -152653.93 311785.083 -57.931526 311843.015 -464439.01 152595.994 -1.9310509
 317500     .3175  -175493.14 324943.025 -30.620176 324973.645 -500436.17 175462.523 -1.0206725
 318000      .318  -195217.96 332515.995 -1.2487688 332517.244 -527733.95 195216.711 -.04162563
 318500     .3185  -211509.34 334396.199 29.7510448 334366.448 -545905.54 211539.095 .991701493
 319000      .319  -224105.93 330572.849 61.6644807 330511.185 -554678.78 224167.595 2.05548269
 319500     .3195  -232800.27 321126.124 93.6532329 321032.471 -553926.39 232893.922 3.12177443
 320000       .32  -237438.84 306221.971  124.93047 306097.041 -543660.81 237563.772 4.16434902
 320500     .3205   -237929.7 286110.672 154.988423 285955.683 -524040.37 238084.685 5.16628076
 321000      .321  -234262.03 261135.569 183.624207 260951.945  -495397.6 234445.651 6.12080689
 321500     .3215  -226515.59 231735.434 210.635249 231524.798 -458251.02 226726.226 7.02117498
 322000      .322  -214850.19 198431.831  235.57786 198196.253 -413282.03 215085.772 7.85259535
 322500     .3225  -199488.29 161809.741 257.832369 161551.909 -361298.04 199746.126 8.59441229
 323000      .323  -180705.11 122502.966 276.757607 122226.208 -303208.07 180981.865 9.22525358
 323500     .3235  -158821.58 81180.2332 291.863148 80888.3701 -240001.81 159113.441  9.7287716
 324000      .324  -134206.65 38537.7964 302.996337 38234.8001 -172744.44 134509.642 10.0998779
 324500     .3245  -107287.41 -4699.9833 310.288901 -5010.2722 -102587.43 107597.698 10.3429634
 325000      .325  -78546.611 -47787.805 313.845119  -48101.65 -30758.805 78860.4556  10.461504
 325500     .3255  -48503.181 -89978.964    313.571 -90292.535 41475.7828 48816.7525 10.4523667
 326000      .326  -17690.825 -130547.09 309.268866 -130856.36 112856.263 18000.0943 10.3089622
 326500     .3265  13355.4095 -168801.85 300.778654 -169102.63 182157.257 -13054.631 10.0259551
 327000      .327  44109.0121 -204102.67 288.139012 -204390.81 248211.687 -43820.873 9.60463375
 327500     .3275  74051.0314 -235863.48 271.721688  -236135.2 309914.514  -73779.31 9.05738959
 328000      .328  102664.719 -263551.41 252.108233 -263803.52 366216.132 -102412.61 8.40360778
 328500     .3285  129443.373 -286693.47 229.789902 -286923.26 416136.844 -129213.58 7.65966339
 329000      .329  153911.105 -304892.36 205.061118 -305097.42 458803.466 -153706.04 6.83537061
 329500     .3295  175641.001 -317840.52 178.128594 -318018.65  493481.52 -175462.87 5.93761982
 330000       .33  194265.201 -325327.72 149.239084 -325476.95 519592.916 -194115.96 4.97463614
[...]
             Random switching times for simulation number  296  :
                                   1  5.5801796E-02    2  5.4258744E-02    3  5.4176209E-02    4  1.0357663E-02    5  6.9853327E-01
                                   6  6.9869586E-01    7  6.9958808E-01

                   663160.043 -683197.77 -743826.69 .1139902E7 -.105614E7 -.121599E7   2438.408
Times of maxima :     .018252    .714051    .003365    .004677    .006506    .002838    .713782
             Random switching times for simulation number  297  :
                                   1  5.6055230E-02    2  5.4163897E-02    3  5.4929744E-02    4  9.5205641E-03    5  7.0046628E-01
                                   6  6.9931070E-01    7  6.9985771E-01

                   659586.418 -634398.91 -743826.69 .1139902E7 -.105614E7 -.121599E7 2419.55503
Times of maxima :     .018233    .713803    .003365    .004677    .006506    .002838    .713972
             Random switching times for simulation number  298  :
                                   1  5.4402657E-02    2  5.4726493E-02    3  5.5809066E-02    4  1.1302849E-02    5  6.9999931E-01
                                   6  6.9999918E-01    7  7.0135056E-01

                    660098.96 -648758.19 -743826.69 .1139902E7 -.105614E7 -.121599E7 2388.37656
Times of maxima :     .018379    .713949    .003365    .004677    .006506    .002838    .713921
             Random switching times for simulation number  299  :
                                   1  5.4359107E-02    2  5.5309833E-02    3  5.5354775E-02    4  9.7516764E-03    5  7.0067447E-01
                                   6  7.0174165E-01    7  7.0054964E-01

                   661213.844 -639564.87 -743826.69 .1139902E7 -.105614E7 -.121599E7 2398.07524
Times of maxima :     .018216    .713959    .003365    .004677    .006506    .002838    .713669
             Random switching times for simulation number  300  :
                                   1  5.6212631E-02    2  5.5400460E-02    3  5.4330646E-02    4  9.8967378E-03    5  7.0009595E-01
                                   6  7.0031249E-01    7  6.9985806E-01

                   662255.984 -646857.92 -743826.69 .1139902E7 -.105614E7 -.121599E7 2370.01698
Times of maxima :     .018226    .714001    .003365    .004677    .006506    .002838     .71366

 MAIN20 dumps OVER12 dice seed  SEEDSV =   3.0444871000000000E+09

Statistical output of  node  voltage   0.4287E+06 |              X0003AX0003BX0003C

1 ) -------------------------------------------------------------------------------------------------------------------------------
Statistical distribution of peak voltage at node  "X0003A".   The base voltage for per unit printout is  V-base = 4.28660705E+05
  Interval             voltage         voltage  in     Frequency    Cumulative               Per cent
    number         in per unit      physical units     (density)     frequency     .GE. current value
        30           1.5000000      6.42991058E+05             0             0          100.000000
        31           1.5500000      6.64424093E+05           248           248           17.333333
        32           1.6000000      6.85857128E+05            31           279            7.000000
        33           1.6500000      7.07290163E+05             6           285            5.000000
        34           1.7000000      7.28723199E+05             8           293            2.333333
        35           1.7500000      7.50156234E+05             7           300             .000000
Summary of preceding table follows:       Grouped data     Ungrouped data
                                 Mean = 1.54083333E+00     1.55226794E+00
                             Variance = 1.74679487E-03     1.36104813E-03
                   Standard deviation = 4.17946752E-02     3.68923857E-02

2 ) -------------------------------------------------------------------------------------------------------------------------------
Statistical distribution of peak voltage at node  "X0003B".   The base voltage for per unit printout is  V-base = 4.28660705E+05
  Interval             voltage         voltage  in     Frequency    Cumulative               Per cent
    number         in per unit      physical units     (density)     frequency     .GE. current value
        28           1.4000000      6.00124987E+05             0             0          100.000000
        29           1.4500000      6.21558022E+05            10            10           96.666667
        30           1.5000000      6.42991058E+05           113           123           59.000000
        31           1.5500000      6.64424093E+05           115           238           20.666667
        32           1.6000000      6.85857128E+05            47           285            5.000000
        33           1.6500000      7.07290163E+05             9           294            2.000000
        34           1.7000000      7.28723199E+05             1           295            1.666667
        35           1.7500000      7.50156234E+05             0           295            1.666667
        36           1.8000000      7.71589269E+05             0           295            1.666667
        37           1.8500000      7.93022304E+05             0           295            1.666667
        38           1.9000000      8.14455340E+05             0           295            1.666667
        39           1.9500000      8.35888375E+05             0           295            1.666667
        40           2.0000000      8.57321410E+05             0           295            1.666667
        41           2.0500000      8.78754445E+05             0           295            1.666667
        42           2.1000000      9.00187481E+05             1           296            1.333333
        43           2.1500000      9.21620516E+05             3           299             .333333
        44           2.2000000      9.43053551E+05             1           300             .000000
Summary of preceding table follows:       Grouped data     Ungrouped data
                                 Mean = 1.52416667E+00     1.52546479E+00
                             Variance = 8.08458751E-03     7.63281186E-03
                   Standard deviation = 8.99143343E-02     8.73659651E-02

3 ) -------------------------------------------------------------------------------------------------------------------------------
  SUMMARY   SUMMARY   SUMMARY   SUMMARY   SUMMARY   SUMMARY   SUMMARY   SUMMARY   SUMMARY   SUMMARY   SUMMARY   SUMMARY   SUMMARY
3 ) -------------------------------------------------------------------------------------------------------------------------------
The following is a distribution of peak overvoltages among all output nodes of the last data card that have the same base voltage.
This distribution is for the maximum of the peaks at all output nodes with  V-base = 4.28660705E+05
  Interval             voltage         voltage  in     Frequency    Cumulative               Per cent
    number         in per unit      physical units     (density)     frequency     .GE. current value
        34           1.7000000      7.28723199E+05             0             0          100.000000
        35           1.7500000      7.50156234E+05           295           295            1.666667
        36           1.8000000      7.71589269E+05             0           295            1.666667
        37           1.8500000      7.93022304E+05             0           295            1.666667
        38           1.9000000      8.14455340E+05             0           295            1.666667
        39           1.9500000      8.35888375E+05             0           295            1.666667
        40           2.0000000      8.57321410E+05             0           295            1.666667
        41           2.0500000      8.78754445E+05             0           295            1.666667
        42           2.1000000      9.00187481E+05             1           296            1.333333
        43           2.1500000      9.21620516E+05             3           299             .333333
        44           2.2000000      9.43053551E+05             1           300             .000000
Summary of preceding table follows:       Grouped data     Ungrouped data
                                 Mean = 1.73166667E+00     1.74166774E+00
                             Variance = 2.64771460E-03     2.37609188E-03
                   Standard deviation = 5.14559482E-02     4.87451729E-02

Statistical output of branch voltage   0.4287E+06 |-1            X0003BX0003CX0003AX0003BX0003CX0003A

4 ) -------------------------------------------------------------------------------------------------------------------------------
Statistical distribution of peak voltage  for branch  "X0003A"  to  "X0003B".   Base voltage  for per unit output = 4.28660705E+05
  Interval             voltage         voltage  in     Frequency    Cumulative               Per cent
    number         in per unit      physical units     (density)     frequency     .GE. current value
        49           2.4500000      1.05021873E+06             0             0          100.000000
        50           2.5000000      1.07165176E+06           291           291            3.000000
        51           2.5500000      1.09308480E+06             0           291            3.000000
        52           2.6000000      1.11451783E+06             2           293            2.333333
        53           2.6500000      1.13595087E+06             1           294            2.000000
        54           2.7000000      1.15738390E+06             5           299             .333333
        55           2.7500000      1.17881694E+06             1           300             .000000
Summary of preceding table follows:       Grouped data     Ungrouped data
                                 Mean = 2.48033333E+00     2.46974392E+00
                             Variance = 9.91527313E-04     1.20928283E-03
                   Standard deviation = 3.14885267E-02     3.47747442E-02

5 ) -------------------------------------------------------------------------------------------------------------------------------
  SUMMARY   SUMMARY   SUMMARY   SUMMARY   SUMMARY   SUMMARY   SUMMARY   SUMMARY   SUMMARY   SUMMARY   SUMMARY   SUMMARY   SUMMARY
5 ) -------------------------------------------------------------------------------------------------------------------------------
A distribution of peak values among all output branches of the last data card that have the same base value follows.  This
statistical distribution is for the maximum of the peaks at all of these output branches having base  voltage  = 4.28660705E+05
  Interval             voltage         voltage  in     Frequency    Cumulative               Per cent
    number         in per unit      physical units     (density)     frequency     .GE. current value
        56           2.8000000      1.20024997E+06             0             0          100.000000
        57           2.8500000      1.22168301E+06           300           300             .000000
Summary of preceding table follows:       Grouped data     Ungrouped data
                                 Mean = 2.82500000E+00     2.83672683E+00
                             Variance = 1.52089415E-15     0.00000000E+00
                   Standard deviation = 3.89986429E-08     0.00000000E+00

Blank card ends statistical tabulation requests.  |BLANK STATISTICS

                                      Sample curve symbols : "A", "B", and "C"
                                      Theoretical curve symbol : "*"
                                      Common curve symbol : "X"

        Switch  "X0001B"  to  "X0002B"            Switch  "X0001A"  to  "X0002A"            Switch  "X0001C"  to  "X0002C"
1.32420000E+00   switchings per column          1.32420000E+00   switchings per column     1.32420000E+00   switchings per column
              Columns                                     Columns                                     Columns
          5   10   15   20   25   30                5   10   15   20   25   30                5   10   15   20   25   30
     +----+----+----+----+----+----+           +----+----+----+----+----+----+           +----+----+----+----+----+----+
    X                                         X                                         X
    X                                         X                                         X
    X                                         X                                         X
    *A                                        X                                         X
    |*A                                       B*                                        |*C
    |A*                                       | X                                       | X
    |   X                                     | B *                                     |   *  C
    |       X                                 |       X                                 |     C *
    |      A    *                             |           *B                            |       C   *
    |                 * A                     |                 *    B                  |                 *  C
    |                       *     A           |                       X                 |                       *    C
    |                      A    *             |                           *   B         |                    C      *
    |  5.5000E-02                 *     A     |  5.5000E-02              B  *           |  5.5000E-02                 *     C
    |                           *      A      |                         B *             |                         C *
    |                  A    *                 |                       * B               |                       *     C
    |               A *                       |                B*                       |            C    *
    |         A *                             |          B*                             |        C  *
    |       * A                               |       X                                 |       *  C
    |  A*                                     |   X                                     | C *
    | *A                                      | X                                       | X
    |X                                        |X                                        |*C
    X                                         *B                                        X
    X                                         X                                         X
    X                                         X                                         *C
    X                                         X                                         X
   Time (scale = 3.33333333E-04  Sec/line)   Time (scale = 3.33333333E-04  Sec/line)   Time  (scale = 3.33333333E-04  Sec/line)

        Switch  "X0003C"  to  "XX0009"            Switch  "X0001B"  to  "X0002B"            Switch  "X0001A"  to  "X0002A"
1.32420000E+00   switchings per column          1.32420000E+00   switchings per column     1.32420000E+00   switchings per column
              Columns                                     Columns                                     Columns
          5   10   15   20   25   30                5   10   15   20   25   30                5   10   15   20   25   30
     +----+----+----+----+----+----+           +----+----+----+----+----+----+           +----+----+----+----+----+----+
    X                                         X                                         X
    X                                         X                                         X
    X                                         X                                         X
    *A                                        X                                         * C
    |X                                        |X                                        |*C
    | *A                                      | X                                       | X
    |  A*                                     |  B*                                     |   X
    |      A*                                 |    B  *                                 |     C *
    |         A *                             |           *  B                          |          C*
    |                 * A                     |                B*                       |                 X
    |                       *     A           |                       *    B            |                       X
    |                           *    A        |                           *B            |                           * C
    |  1.0000E-02                 *A          |  7.0000E-01                 *   B       |  7.0000E-01                C*
    |                           *   A         |                           *  B          |                           *  C
    |                A      *                 |                   B   *                 |                    C  *
    |                 * A                     |            B    *                       |                 X
    |           X                             |         B *                             |           * C
    |     A *                                 |     B *                                 |       X
    A   *                                     |   *  B                                  |   *C
    A *                                       | X                                       C *
    A*                                        |*B                                       |*C
    *A                                        *B                                        X
    X                                         X                                         X
    X                                         *B                                        X
    X                                         X                                         X
   Time (scale = 3.33333333E-04  Sec/line)   Time (scale = 3.33333333E-04  Sec/line)   Time  (scale = 3.33333333E-04  Sec/line)

   Switch  "X0001C"  to  "X0002C"
     1.32420000E+00   switchings per column
              Columns
          5   10   15   20   25   30
     +----+----+----+----+----+----+
    X
    X
    *A
    X
    |X
    |A*
    | A *
    |       X
    |           *    A
    |          A      *
    |                       *    A
    |                         A *
    |  7.0000E-01                A*
    |                          A*
    |                       X
    |                 *  A
    |           *       A
    |    A  *
    |   X
    A *
    A*
    *A
    X
    *A
    X
   Time (scale = 3.33333333E-04  Sec/line)
 .... Questionable Kolmogorov-Smirnov test result = 4.79983461E-01
 .... Questionable Kolmogorov-Smirnov test result = 8.61125218E-01
 .... Questionable Kolmogorov-Smirnov test result = 6.22920778E-01
 .... Questionable Kolmogorov-Smirnov test result = 8.70941508E-02
 .... Questionable Kolmogorov-Smirnov test result = 7.08509700E-01
 .... Questionable Kolmogorov-Smirnov test result = 9.61921384E-01
 .... Questionable Kolmogorov-Smirnov test result = 7.92096056E-01

Actual List Sizes for the preceding solution follow.       11-Nov-18  11.00.00
   Size  1-10:    27    26    38     3   138    13    42  5298     0     0
   Size 11-20:     0     7 -9999 -9999 -9999     0     0     0    23  3252
   Size 21-30:    36   180 14783     0 -9999     9 -9999 -9999 -9999     0
Seconds for overlays  1-5  :     0.000     0.000     0.000  -- (CP: Wait; Real)
Seconds for overlays  6-11 :     0.000     0.000     0.000
Seconds for overlays 12-15 :     0.000     0.000     0.000
Seconds for time-step loop :     0.000     0.000     0.000
Seconds after DELTAT-loop  :     0.000     0.000     0.000
                               ---------------------------
                   Totals  :     0.000     0.000     0.000

