   ---   55   cards of disk file read into card cache cells  1   onward.
 <===> Done with  "/"-card sorting by data class.    Remember that the source file appears different from interpreted input data.
Alternative Transients Program (ATP),  F77 GNU Linux or DOS.  All rights reserved by Can/Am user group of Portland, Oregon, USA.
 Date (dd-mth-yy) and time of day (hh.mm.ss) = 11-Nov-18  11.00.00    Name of disk plot file, if any, is
Consult the 860-page ATP Rule Book of the Can/Am EMTP User Group in Portland,  Oregon, USA.  Source code date is
Total size of LABCOM tables = 16446853 INTEGER words.  31 VARDIM  List Sizes follow:  6002  10K  192K  900  420K  1200  15K
  120K  2250  3800  720  2K  72800  510  800K  800  90  254  800K  100K  3K  15K  192K  120  45K  260K  600  210K  1100  19  200K
--------------------------------------------------+--------------------------------------------------------------------------------
Descriptive interpretation of input data cards.   |  Input data card images are shown below, all 80 columns, character by character
                                                  0         1         2         3         4         5         6         7         8
                                                  012345678901234567890123456789012345678901234567890123456789012345678901234567890
--------------------------------------------------+--------------------------------------------------------------------------------
Comment card.   KOMPAR > 0.                       |C data:Caso0_ReEnergizacao_Convenc_SemControle.atp
Marker card preceding new EMTP data case.         |BEGIN NEW DATA CASE
Comment card.   KOMPAR > 0.                       |C $DUMMY, XYZ000
Misc. data.     1.000E-06   1.000E+00   0.000E+00 |   1.E-6      1.
Misc. data.  500  1  0  0  1  0  0  1  300  0     |     500       1       0       0       1       0       0       1     300
Statistics data.      1    1    0    0    1    0  |       1       1       0       0       1      -1                               0
Series R-L-C.   5.000E+00  7.500E-02  0.000E+00   |  X0001AX0007A                5.   75.                                         0
Series R-L-C.   5.000E+00  7.500E-02  0.000E+00   |  X0001BX0007B                5.   75.                                         0
Series R-L-C.   5.000E+00  7.500E-02  0.000E+00   |  X0001CX0007C                5.   75.                                         0
Series R-L-C.   2.000E+02  0.000E+00  0.000E+00   |  X0007AX0001A              200.                                               0
Series R-L-C.   2.000E+02  0.000E+00  0.000E+00   |  X0007BX0001B              200.                                               0
Series R-L-C.   2.000E+02  0.000E+00  0.000E+00   |  X0007CX0001C              200.                                               0
Series R-L-C.   1.516E+00  1.608E+00  0.000E+00   |  X0003BXX0008            1.5155 1608.                                         0
Series R-L-C.   1.516E+00  1.608E+00  0.000E+00   |  X0003AXX0008            1.5155 1608.                                         0
Series R-L-C.   1.516E+00  1.608E+00  0.000E+00   |  X0003CXX0008            1.5155 1608.                                         0
Series R-L-C.   3.272E-01  3.472E-01  0.000E+00   |  XX0008                   .3272 347.2                                         0
Series R-L-C.   3.000E+01  0.000E+00  0.000E+00   |  XX0009                     30.                                               0
Series R-L-C.   3.000E+02  0.000E+00  0.000E+00   |  X0002AX0010A              300.                                               0
Series R-L-C.   3.000E+02  0.000E+00  0.000E+00   |  X0002BX0010B              300.                                               0
Series R-L-C.   3.000E+02  0.000E+00  0.000E+00   |  X0002CX0010C              300.                                               0
Dynamic $INCLUDE uses fixed RAM cache to delay.   |$INSERT, C:\SimulacaoATP\EXT1.pch
J. Marti line, mode  1   parameters begin.        |-1X0010AX0006C                2.  0.00              -2 3
J. Marti line, mode  2   parameters begin.        |-2X0010BX0006A                2.  0.00              -2 3
J. Marti line, mode  3   parameters begin.        |-3X0010CX0006B                2.  0.00              -2 3
TR(1,1 )...  0.667-0.707-0.317                    |  0.66668704 -0.70710678 -0.31743981
TI(1,1 )...  0.000 0.000 0.004                    |  0.00000000  0.00000000  0.00360196
TR(2,1 )...  0.333 0.000 0.894                    |  0.33285412  0.00000000  0.89350256
TI(2,1 )... -0.016 0.000 0.010                    | -0.01627623  0.00000000  0.00954818
TR(3,1 )...  0.667 0.707-0.317                    |  0.66668704  0.70710678 -0.31743981
TI(3,1 )...  0.000 0.000 0.004                    |  0.00000000  0.00000000  0.00360196
Dynamic $INCLUDE uses fixed RAM cache to delay.   |$INSERT, C:\SimulacaoATP\CONV2.pch
J. Marti line, mode  1   parameters begin.        |-1X0004AX0005C                2.  0.00              -2 3
J. Marti line, mode  2   parameters begin.        |-2X0004BX0005A                2.  0.00              -2 3
J. Marti line, mode  3   parameters begin.        |-3X0004CX0005B                2.  0.00              -2 3
TR(1,1 )...  0.667-0.707-0.317                    |  0.66668704 -0.70710678 -0.31743981
TI(1,1 )...  0.000 0.000 0.004                    |  0.00000000  0.00000000  0.00360196
TR(2,1 )...  0.333 0.000 0.894                    |  0.33285412  0.00000000  0.89350256
TI(2,1 )... -0.016 0.000 0.010                    | -0.01627623  0.00000000  0.00954818
TR(3,1 )...  0.667 0.707-0.317                    |  0.66668704  0.70710678 -0.31743981
TI(3,1 )...  0.000 0.000 0.004                    |  0.00000000  0.00000000  0.00360196
Dynamic $INCLUDE uses fixed RAM cache to delay.   |$INSERT, C:\SimulacaoATP\EXT3.pch
J. Marti line, mode  1   parameters begin.        |-1X0005AX0003A                2.  0.00              -2 3
J. Marti line, mode  2   parameters begin.        |-2X0005BX0003B                2.  0.00              -2 3
J. Marti line, mode  3   parameters begin.        |-3X0005CX0003C                2.  0.00              -2 3
TR(1,1 )...  0.667-0.707-0.317                    |  0.66668704 -0.70710678 -0.31743981
TI(1,1 )...  0.000 0.000 0.004                    |  0.00000000  0.00000000  0.00360196
TR(2,1 )...  0.333 0.000 0.894                    |  0.33285412  0.00000000  0.89350256
TI(2,1 )... -0.016 0.000 0.010                    | -0.01627623  0.00000000  0.00954818
TR(3,1 )...  0.667 0.707-0.317                    |  0.66668704  0.70710678 -0.31743981
TI(3,1 )...  0.000 0.000 0.004                    |  0.00000000  0.00000000  0.00360196
Dynamic $INCLUDE uses fixed RAM cache to delay.   |$INSERT, C:\SimulacaoATP\CONV4.pch
J. Marti line, mode  1   parameters begin.        |-1X0006AX0004C                2.  0.00              -2 3
J. Marti line, mode  2   parameters begin.        |-2X0006BX0004A                2.  0.00              -2 3
J. Marti line, mode  3   parameters begin.        |-3X0006CX0004B                2.  0.00              -2 3
TR(1,1 )...  0.667-0.707-0.317                    |  0.66668704 -0.70710678 -0.31743981
TI(1,1 )...  0.000 0.000 0.004                    |  0.00000000  0.00000000  0.00360196
TR(2,1 )...  0.333 0.000 0.894                    |  0.33285412  0.00000000  0.89350256
TI(2,1 )... -0.016 0.000 0.010                    | -0.01627623  0.00000000  0.00954818
TR(3,1 )...  0.667 0.707-0.317                    |  0.66668704  0.70710678 -0.31743981
TI(3,1 )...  0.000 0.000 0.004                    |  0.00000000  0.00000000  0.00360196
Blank card ending branches.  IBR, NTOT = 26  27   |BLANK BRANCH
Switch.   5.50E-02  1.00E-03  0.00E+00  3.33E+03  |  X0001BX0002B      .055      .001               3333.STATISTICS               0
Switch.   5.50E-02  1.00E-03  0.00E+00  3.33E+03  |  X0001AX0002A      .055      .001               3333.STATISTICS               0
Switch.   5.50E-02  1.00E-03  0.00E+00  3.33E+03  |  X0001CX0002C      .055      .001               3333.STATISTICS               0
Switch.   1.00E-02  1.00E-03  0.00E+00  0.00E+00  |  X0003CXX0009       .01      .001                    STATISTICS               1
Switch.   7.00E-01  1.00E-03  0.00E+00  0.00E+00  |  X0001BX0002B        .7      .001                    STATISTICS               0
Switch.   7.00E-01  1.00E-03  0.00E+00  0.00E+00  |  X0001AX0002A        .7      .001                    STATISTICS               0
Switch.   7.00E-01  1.00E-03  0.00E+00  0.00E+00  |  X0001CX0002C        .7      .001                    STATISTICS               0
Switch.   0.00E+00  6.98E-01  0.00E+00  0.00E+00  |  X0002AX0010A                .698                                             0
Switch.   0.00E+00  6.98E-01  0.00E+00  0.00E+00  |  X0002BX0010B                .698                                             0
Switch.   0.00E+00  6.98E-01  0.00E+00  0.00E+00  |  X0002CX0010C                .698                                             0
Switch.   7.10E-01  0.00E+00  0.00E+00  0.00E+00  |  X0002AX0010A       .71                                                       0
Switch.   7.10E-01  0.00E+00  0.00E+00  0.00E+00  |  X0002BX0010B       .71                                                       0
Switch.   7.10E-01  0.00E+00  0.00E+00  0.00E+00  |  X0002CX0010C       .71                                                       0
Blank card ending switches.   KSWTCH = 13.        |BLANK SWITCH
Source.   4.29E+05  6.00E+01  0.00E+00 -1.00E+00  |14X0007A  428660.705       60.                                     -1.      100.
Source.   4.29E+05  6.00E+01 -1.20E+02 -1.00E+00  |14X0007B  428660.705       60.     -120.                           -1.      100.
Source.   4.29E+05  6.00E+01 -2.40E+02 -1.00E+00  |14X0007C  428660.705       60.     -240.                           -1.      100.
Blank card ends electric sources.  KCONST = 3     |BLANK SOURCE

     Total network loss  P-loss  by summing injections =   1.935506296561E+08

Card of names for time-step loop output.          |  X0003AX0003BX0003C
Output voltage differences for pairs of A6 names  |-5X0003BX0003CX0003AX0003BX0003CX0003A
Blank card ending requests for output variables.  |BLANK OUTPUT

Column headings for the  7   EMTP output variables follow.  These are divided among the 5 possible classes as follows ....
  First  6     output variables are electric-network voltage differences (upper voltage minus lower voltage);
  Next   1     output variables are branch currents (flowing from the upper node to the lower node);
   Step      Time      X0003A     X0003B     X0003C     X0003B     X0003A     X0003C     X0003C
                                                        X0003C     X0003B     X0003A     XX0009
 ***      Phasor I(0) =  3.4845150E+02                     Switch  "X0001B"  to  "X0002B"  closed in the steady-state.
 ***      Phasor I(0) =  3.0566510E+02                     Switch  "X0001A"  to  "X0002A"  closed in the steady-state.
 ***      Phasor I(0) = -6.5298890E+02                     Switch  "X0001C"  to  "X0002C"  closed in the steady-state.
 ***                    Switch  "X0002A"  to  "X0010A"  closed  after  0.00000000E+00  sec.
 ***                    Switch  "X0002B"  to  "X0010B"  closed  after  0.00000000E+00  sec.
 ***                    Switch  "X0002C"  to  "X0010C"  closed  after  0.00000000E+00  sec.
      0       0.0  352723.116 -336319.83 -13505.877 -322813.96 689042.948 -366228.99        0.0
    500     .5E-3  380181.436 -289796.16 -86883.243 -202912.92 669977.599 -467064.68        0.0
   1000     .1E-2  395762.715 -233572.05 -157372.04 -76200.004  629334.76 -553134.76        0.0
   1500     .0015  396679.486 -168957.92 -222206.14 53248.2121 565637.411 -618885.62        0.0
   2000      .002   462494.86 29881.0087 -537969.75  567850.76 432613.852 -.100046E7        0.0
   2500     .0025  411906.991 190138.529 -604859.35 794997.876 221768.462 -.101677E7        0.0
   3000      .003  331531.936 305924.713 -638703.72 944628.433 25607.2227 -970235.66        0.0
   3500     .0035  226317.086 388254.697 -620729.47 .1008984E7 -161937.61 -847046.55        0.0
   4000      .004  115185.767 465413.539 -560998.83 .1026412E7 -350227.77 -676184.59        0.0
   4500     .0045  4874.28046 524631.207 -494762.01 .1019393E7 -519756.93 -499636.29        0.0
   5000      .005  -116176.16 558210.281 -414908.22 973118.502 -674386.44 -298732.06        0.0
   5500     .0055   -274274.5 529669.279 -237678.06 767347.343 -803943.78 36596.4336        0.0
   6000      .006  -381051.44 462994.577 -67815.671 530810.248 -844046.02 313235.773        0.0
   6500     .0065  -448343.96 393738.709  73890.094 319848.615 -842082.67 522234.056        0.0
   7000      .007  -488269.63 327607.482 176865.255 150742.228 -815877.12 665134.888        0.0
   7500     .0075   -501674.3 263343.407  239888.94 23454.4664  -765017.7 741563.236        0.0
   8000      .008  -496715.18 192195.178 287115.981 -94920.803 -688910.35 783831.157        0.0
   8500     .0085  -474941.64 115488.314 325918.275 -210429.96 -590429.95 800859.912        0.0
   9000      .009   -416987.5 46849.7009 330447.798  -283598.1  -463837.2 747435.297        0.0
   9500     .0095  -348943.04 -1591.5404 314324.498 -315916.04  -347351.5 663267.543        0.0
  10000       .01  -286710.54 -43944.943 296829.296 -340774.24  -242765.6 583539.838        0.0
 ***                                                             Close switch  "X0003C"  to  "XX0009"  after  1.00010000E-02  sec.
  10500     .0105  -298354.53 -164643.02 27909.4814 -192552.51 -133711.51 326264.011 930.316046
  11000      .011  -251552.46 -223690.87 30240.3024 -253931.17 -27861.592 281792.762 1008.01008
  11500     .0115  -199638.58 -291977.87 33574.0335 -325551.91 92339.2874 233212.618 1119.13445
  12000      .012  -151484.84 -368326.72 38830.9252 -407157.65 216841.886 190315.762 1294.36417
  12500     .0125  -99695.002 -422352.84 42306.5881 -464659.43 322657.836  142001.59  1410.2196
  13000      .013  -29961.411 -471122.72  43810.242 -514932.96 441161.307 73771.6534  1460.3414
  13500     .0135  -8257.9253 -529402.41 46024.3139 -575426.73 521144.489 54282.2392  1534.1438
  14000      .014  1270.72461 -624288.41 55449.0079 -679737.42 625559.136 54178.2833 1848.30026
  14500     .0145  124082.414  -596733.8 62570.5961 -659304.39 720816.212 -61511.818 2085.68654
  15000      .015  240732.652 -533255.66 64176.5167 -597432.18 773988.311 -176556.14 2139.21722
  15500     .0155   334908.09 -453531.66  59635.541  -513167.2 788439.746 -275272.55 1987.85137
  16000      .016  422994.801 -360412.26 52149.5984 -412561.86 783407.065  -370845.2 1738.31995
  16500     .0165  501770.785   -248654. 43216.6195 -291870.62 750424.785 -458554.17 1440.55398
  17000      .017  569099.603 -117333.15 31610.4386 -148943.59  686432.75 -537489.16 1053.68129
  17500     .0175  607632.332 18128.5538 18794.8077 -666.25388 589503.778 -588837.52  626.49359
  18000      .018  610727.208  156950.78 10081.7397  146869.04 453776.428 -600645.47 336.057991
  18500     .0185  586119.565 284961.477 4517.14175 280444.335 301158.088 -581602.42 150.571392
  19000      .019  532097.493 386957.594 -2652.4203 389610.014 145139.899 -534749.91 -88.414011
  19500     .0195  452513.193   465946.5 -11108.378 477054.877 -13433.307 -463621.57 -370.27926
  20000       .02  349690.078 521749.215 -19920.363 541669.579 -172059.14 -369610.44 -664.01211
  20500     .0205  233524.425 554798.938 -28551.401 583350.338 -321274.51 -262075.83 -951.71336
  21000      .021  112760.418 566284.305 -37042.249 603326.554 -453523.89 -149802.67 -1234.7416
  21500     .0215   -13823.38  549062.83 -44564.119 593626.949 -562886.21 -30740.739 -1485.4706
  22000      .022   -139937.9 506713.246 -49397.863 556111.109 -646651.14  90540.036 -1646.5954
  22500     .0225  -250513.24 455729.622 -51357.312 507086.935 -706242.86 199155.929 -1711.9104
  23000      .023  -340024.14 403369.679 -50858.027 454227.706 -743393.82 289166.109 -1695.2676
  23500     .0235  -409332.61 347221.103 -48545.676 395766.779 -756553.71 360786.933 -1618.1892
  24000      .024  -460262.73 284988.311 -44625.158 329613.469 -745251.04 415637.567 -1487.5053
  24500     .0245  -493245.28 216924.755 -39221.154 256145.909 -710170.03 454024.125 -1307.3718
  25000      .025  -508361.03 144810.392 -32812.952 177623.344 -653171.42 475548.081 -1093.7651
  25500     .0255  -508590.71 68201.2666 -25589.334 93790.6009 -576791.98 483001.377 -852.97781
  26000      .026  -495486.44 -12976.374 -17087.772  4111.3971 -482510.07 478398.672 -569.59239
  26500     .0265  -470023.74 -98782.156 -7135.6912 -91646.465 -371241.58 462888.046 -237.85637
  27000      .027  -433660.19  -188334.1 3682.14076 -192016.24 -245326.09 437342.334 122.738025
  27500     .0275  -387025.95 -278505.86 14597.1648 -293103.03 -108520.09  401623.12 486.572158
  28000      .028  -330113.79 -364763.48 25026.0667 -389789.54 34649.6846  355139.86 834.202225
  28500     .0285  -262439.31 -441735.92 34499.1301 -476235.05  179296.61 296938.441   1149.971
  29000      .029  -184098.65 -504479.49 42519.2323 -546998.72 320380.832 226617.887 1417.30774
  29500     .0295  -97503.152 -549744.25 48755.4376 -598499.69 452241.101  146258.59 1625.18125
  30000       .03  -5541.6254 -574606.76 53165.5546 -627772.32 569065.135   58707.18 1772.18515
  30500     .0305  89848.7522 -575762.99 55803.2687 -631566.26 665611.742 -34045.483 1860.10896
  31000      .031  186618.807 -550888.89 56701.1784 -607590.07 737507.698 -129917.63 1890.03928
  31500     .0315  281217.883 -500230.66 55851.4218 -556082.08 781448.542 -225366.46 1861.71406
  32000      .032  368925.179 -426631.15 53268.0171 -479899.17  795556.33 -315657.16 1775.60057
  32500     .0325  445077.664 -334418.04  48999.403 -383417.44 779495.704 -396078.26 1633.31343
  33000      .033  505700.313 -228677.52 43088.1254 -271765.65 734377.833 -462612.19 1436.27085
  33500     .0335  547451.627 -115080.15 35647.9768 -150728.13  662531.78 -511803.65 1188.26589
  34000      .034  567836.252 576.102323 26961.0049 -26384.903  567260.15 -540875.25 898.700164
  34500     .0345  565359.924 112743.789 17426.3133 95317.4755 452616.135 -547933.61 580.877109
  35000      .035   539749.61 216490.691 7436.02223 209054.668  323258.92 -532313.59 247.867408
  35500     .0355  492114.149  307945.26   -2667.81  310613.07 184168.889 -494781.96 -88.927001
  36000      .036  424860.162 384538.462 -12562.386 397100.848 40321.6997 -437422.55 -418.74619
  36500     .0365  341478.642 444961.201  -21934.28  466895.48 -103482.56 -363412.92 -731.14265
  37000      .037  246090.982 488774.694 -30502.383 519277.078 -242683.71 -276593.37 -1016.7461
  37500     .0375  142940.925 515926.357 -38012.982 553939.339 -372985.43 -180953.91 -1267.0994
  38000      .038  36248.6114 526596.361  -44216.23 570812.592 -490347.75 -80464.842 -1473.8743
  38500     .0385  -69771.158 521290.301 -48867.628 570157.929 -591061.46 20903.5299 -1628.9209
  39000      .039  -171063.72 500811.997 -51754.794 552566.792 -671875.72 119308.929 -1725.1598
  39500     .0395  -264054.18 466015.131 -52726.844 518741.976 -730069.31 211327.332 -1757.5615
  40000       .04  -345855.89 417626.524 -51710.437 469336.961 -763482.42 294145.456 -1723.6812
  40500     .0405  -414233.44 356350.654 -48720.799 405071.453 -770584.09 365512.639 -1624.0266
  41000      .041  -467498.12 283116.541 -43871.182 326987.723 -750614.66 423626.935 -1462.3727
  41500     .0415  -504467.65 199292.097 -37362.858 236654.956 -703759.74 467104.789 -1245.4286
  42000      .042  -524447.12 106811.671 -29456.615 136268.286 -631258.79 494990.504 -981.88715
  % % % % % %   Suspended simulation;  plot data space exhausted;  SPY SPACE is required.   LIMBUF =  340000.
  % % % % % %   Suspended simulation;  plot data space exhausted;  SPY SPACE is required.   LIMBUF =  340000.
  +++  Time-sharing disabled.   Send  user-keyed interrupt to silence alarm.
   Current values.  INDBUF  INDBEG  LIMBUF  MFLUSH  NUMDCD  KCARD1  KCARD2
                    339994      50  340000    1000      46       1      50
Plot timespan now in memory (in sec) = 0.00000000E+00   4.24930000E-02
   ++++  Begin plot-data copy from memory to disk.   MFLUSH, INDBUF, N4, Tbeg,  Tend = 1001  339994       1  -1.00000E+00
1.00000E+19
  42500     .0425  -527192.66 8210.83419 -20448.961 28659.7953  -535403.5 506743.702 -681.63204
  43000      .043  -512860.55 -93394.573 -10664.909 -82729.665 -419465.97 502195.637 -355.49695
  43500     .0435  -481964.25  -194365.2 -455.30762 -193909.89 -287599.05 481508.942 -15.176921
  44000      .044  -435353.68 -290656.02 9813.64983 -300469.67 -144697.66 445167.328 327.121661
  44500     .0445   -374218.6 -378028.83 19774.3563 -397803.18 3810.22655 393992.956  659.14521
  45000      .045  -300134.92 -452372.64 29068.7583  -481441.4 152237.721 329203.682 968.958611
  45500     .0455   -215133.6 -510070.26 37360.0011 -547430.26 294936.661 252493.598 1245.33337
  46000      .046   -121730.1 -548301.05 44347.8716 -592648.92 426570.944 166077.975 1478.26239
  46500     .0465  -22880.729  -565222.1  49784.256 -615006.36 542341.376 72664.9847  1659.4752
  47000      .047   78109.694 -560052.47 53483.6847 -613536.16 638162.167 -24626.009 1782.78949
  47500     .0475  177689.933   -533104. 55328.2014  -588432.2 710793.929 -122361.73 1844.27338
  48000      .048  272177.689 -485753.46 55268.3621 -541021.83 757931.154 -216909.33 1842.27874
  48500     .0485  357913.475 -420324.93  53320.743 -473645.68 778238.409 -304592.73  1777.3581
  49000      .049  431448.004 -339886.87  49562.397 -389449.27 771334.876 -381885.61  1652.0799
  49500     .0495  489734.729 -248007.02 44125.2597 -292132.28 737741.749 -445609.47 1470.84199
  50000       .05  530302.192 -148511.62 37192.9416 -185704.57 678813.816 -493109.25 1239.76472
  50500     .0505  551391.665 -45277.078 28998.4542 -74275.532 596668.742 -522393.21  966.61514
  51000      .051   552054.03 57938.0079 19819.5508 38118.4571 494116.022 -532234.48 660.651693
  51500     .0515  532203.232 157621.528  9970.6511 147650.877 374581.704 -522232.58 332.355037
  52000      .052  492624.581 250598.958 -207.29779 250806.256 242025.623 -492831.88 -6.9099264
  52500     .0525  434935.291 334085.412 -10358.223 344443.634 100849.879 -445293.51 -345.27409
  53000      .053   361493.72 405698.547 -20123.746 425822.292 -44204.827 -381617.47 -670.79152
  53500     .0535  275262.153 463443.442  -29156.91 492600.351 -188181.29 -304419.06   -971.897
  54000      .054  179641.417  505692.82 -37135.464 542828.284  -326051.4 -216776.88 -1237.8488
  54500     .0545   78299.973 531185.539 -43773.697 574959.235 -452885.57 -122073.67 -1459.1232
  55000      .055   -24988.89 539051.589 -48832.605 587884.194 -564040.48 -23843.715 -1627.7535
  55500     .0555  -126498.39 528856.482 -52128.451 580984.933 -655354.87 74369.9361  -1737.615
  56000      .056  -222685.02 500654.075 -53539.577 554193.651 -723339.09 169145.443 -1784.6526
 ***                                                             Open  switch  "X0001B"  to  "X0002B"  after  5.63190000E-02  sec.
  56500     .0565  -310303.56  455040.26 -53011.393 508051.653 -765343.82 257292.171 -1767.0464
  57000      .057  -386494.57 393199.942 -50559.408  443759.35 -779694.52 335935.167 -1685.3136
  57500     .0575   -448845.4 316935.515 -46269.793 363205.308 -765780.92 402575.611 -1542.3264
  58000      .058  -495396.81 228772.802 -40303.488  269076.29 -724169.62 455093.327 -1343.4496
  58500     .0585  -536846.91 170076.308 -34286.295 204362.603 -706923.22 502560.619 -1142.8765
  59000      .059  -547345.22 121043.257 -25919.371 146962.628 -668388.48  521425.85 -863.97903
 ***                                                             Open  switch  "X0001A"  to  "X0002A"  after  5.94710000E-02  sec.
  59500     .0595  -538556.03 67410.8274 -16504.806 83915.6333 -605966.86 522051.225  -550.1602
  60000       .06  -513345.46 6564.72345 -6450.7048 13015.4283 -519910.19 506894.758 -215.02349
 ***                                                             Open  switch  "X0001C"  to  "X0002C"  after  6.00170000E-02  sec.
  60500     .0605  -471878.27 -60669.782 3892.20603 -64561.988 -411208.49 475770.478 129.740201
  61000      .061   -413283.1 -132188.64 14184.6023 -146373.24 -281094.46 427467.699 472.820075
  61500     .0615   -366859.4 -198923.52 25080.7751 -224004.29 -167935.89 391940.177 836.025836
  62000      .062  -311235.96 -225889.06 30424.4002 -256313.46   -85346.9 341660.363 1014.14667
  62500     .0625  -249742.18  -252689.5 27231.5455 -279921.05 2947.32283 276973.727 907.718185
  63000      .063  -187261.26 -289681.14 22313.3189 -311994.46 102419.875 209574.583 743.777297
  63500     .0635  -112430.99  -326263.6 16856.1178 -343119.72 213832.612 129287.108 561.870594
  64000      .064  -25126.178 -357450.51 10218.3834 -367668.89 332324.331 35344.5614  340.61278
  64500     .0645  64173.4821 -391341.81 3008.32036 -394350.13 455515.293 -61165.162 100.277345
  65000      .065  130594.558 -411119.63 -4018.8242  -407100.8 541714.186 -134613.38 -133.96081
  65500     .0655  177768.103 -420042.94 -10427.231 -409615.71 597811.048 -188195.33 -347.57437
  66000      .066  196958.091  -449300.1 -13466.171 -435833.93 646258.194 -210424.26 -448.87235
  66500     .0665   248282.26 -455298.03  -13082.71 -442215.32 703580.294 -261364.97 -436.09033
  67000      .067  306158.736 -451656.46 -11460.699 -440195.76 757815.193 -317619.43 -382.02328
  67500     .0675  361961.291 -444702.37 -8945.9395 -435756.43 806663.658 -370907.23 -298.19798
  68000      .068  411582.566 -438928.74 -4752.3487 -434176.39 850511.304 -416334.91 -158.41162
  68500     .0685  434516.295 -407035.76 509.364804 -407545.13 841552.056 -434006.93 16.9788268
  69000      .069  443031.432 -363019.24 5784.47117 -368803.72 806050.677 -437246.96 192.815706
  69500     .0695  454277.453 -313820.23 10219.6825 -324039.92 768097.687 -444057.77 340.656083
  70000       .07  474726.897 -259979.29 11109.1637 -271088.45 734706.187 -463617.73 370.305456
  70500     .0705  482846.509  -210859.8 10587.3588 -221447.16 693706.313 -472259.15 352.911958
  71000      .071  488575.802 -159882.92 9879.78176  -169762.7 648458.723 -478696.02 329.326059
  71500     .0715  490654.349 -104692.07 8543.44265 -113235.52 595346.422 -482110.91 284.781422
  72000      .072  461877.603 -31371.848 6011.82627 -37383.674 493249.451 -455865.78 200.394209
  72500     .0725  419307.248 41851.8698  2669.1365 39182.7332 377455.378 -416638.11 88.9712168
  73000      .073  377859.813  106452.29 -925.31452 107377.604 271407.523 -378785.13 -30.843817
  73500     .0735  326056.043 152912.055  -3409.803 156321.858 173143.988 -329465.85  -113.6601
  74000      .074  277065.898 197801.386 -4525.9124 202327.299 79264.5117 -281591.81 -150.86375
  74500     .0745  232358.805 241336.272 -4926.5653 246262.838 -8977.4671 -237285.37 -164.21884
  75000      .075  179819.221 282467.061  -4678.205 287145.266 -102647.84 -184497.43 -155.94017
  75500     .0755  102885.339 329917.973 -3546.4715 333464.444 -227032.63 -106431.81 -118.21572
  76000      .076  25526.9357 373855.182 -1761.3156 375616.497 -348328.25 -27288.251  -58.71052
  76500     .0765  -41953.109 405896.948 403.974395 405492.973 -447850.06 42357.0832 13.4658132
  77000      .077  -102648.68   425638.4 2836.53678 422801.864 -528287.08 105485.214 94.5512261
  77500     .0775  -152968.34 438974.263 4279.27053 434694.992  -591942.6 157247.611 142.642351
  78000      .078  -201501.56 438963.316  5025.6661  433937.65 -640464.88 206527.225 167.522203
  78500     .0785  -254199.35 438091.762 5778.22024 432313.542 -692291.11 259977.569 192.607341
  79000      .079  -312944.93 443052.771 6090.06286 436962.708  -755997.7 319034.989 203.002095
  79500     .0795  -362897.13 441355.684 5378.74203 435976.942 -804252.82 368275.875 179.291401
  80000       .08  -399246.86 424153.106 4130.77614  420022.33 -823399.96 403377.633 137.692538
  80500     .0805  -423883.07 394481.451 2728.67024 391752.781 -818364.52 426611.739 90.9556746
  81000      .081  -441597.96 352625.957 1444.89648 351181.061 -794223.92  443042.86 48.1632159
  81500     .0815  -451055.75 300633.648 763.495487 299870.153  -751689.4  451819.25 25.4498496
  82000      .082  -461906.25 254922.321 309.114271 254613.207 -716828.57 462215.365  10.303809
  82500     .0825  -472307.42 213125.765 -213.39649 213339.162 -685433.19 472094.025 -7.1132163
  83000      .083  -472692.43 164300.786 -520.67977 164821.466 -636993.21 472171.747 -17.355992
  83500     .0835  -456332.75 107158.962 -237.33696 107396.299 -563491.71 456095.414  -7.911232
  84000      .084  -427173.66 45467.4534 467.116035 45000.3374 -472641.11 427640.776 15.5705345
  84500     .0845  -389563.72 -19309.308 1432.98073 -20742.289 -370254.41 390996.703 47.7660242
  % % % % % %   Suspended simulation;  plot data space exhausted;  SPY SPACE is required.   LIMBUF =  340000.
  % % % % % %   Suspended simulation;  plot data space exhausted;  SPY SPACE is required.   LIMBUF =  340000.
  +++  Time-sharing disabled.   Send  user-keyed interrupt to silence alarm.
   Current values.  INDBUF  INDBEG  LIMBUF  MFLUSH  NUMDCD  KCARD1  KCARD2
                    339994      50  340000    1001      46       1      50
Plot timespan now in memory (in sec) = 4.24919985E-02   8.49850000E-02
   ++++  Begin plot-data copy from memory to disk.   MFLUSH, INDBUF, N4, Tbeg,  Tend = 1002  339994       1  -1.00000E+00
1.00000E+19
  85000      .085  -342961.57 -84919.727 2391.60591 -87311.333 -258041.85 345353.178  79.720197
  85500     .0855  -305146.64 -140016.56  3058.9927 -143075.55 -165130.08 308205.628 101.966423
  86000      .086  -267020.07 -187381.25 3442.68083 -190823.93 -79638.816 270462.747 114.756028
  86500     .0865  -217843.27 -233588.29 3635.78644 -237224.07 15745.0187 221479.054 121.192881
  87000      .087  -156128.88 -279249.18 3530.43921 -282779.62 123120.306 159659.316 117.681307
  87500     .0875  -89477.246 -323406.06 3156.07246 -326562.13 233928.815 92633.3187 105.202415
  88000      .088  -20806.214 -364291.71 2681.68923  -366973.4 343485.493  23487.903 89.3896408
  88500     .0885  46199.0366 -400540.22  2252.1745 -402792.39 446739.253 -43946.862 75.0724834
  89000      .089  98000.6558 -421487.43 1886.81031 -423374.24 519488.082 -96113.846  62.893677
  89500     .0895  146522.177 -431664.63 1311.64393 -432976.27 578186.807 -145210.53 43.7214643
  90000       .09  199521.203 -437953.09 618.897322 -438571.98 637474.289 -198902.31 20.6299107
  90500     .0905  254434.012 -441433.77 107.804608 -441541.57  695867.78 -254326.21 3.59348692
  91000      .091  306836.947 -439621.11 -61.155195 -439559.96 746458.058  -306898.1 -2.0385065
  91500     .0915  355259.573 -431607.84 70.9381452 -431678.78 786867.412 -355188.63 2.36460484
  92000      .092  393339.255 -414825.52 450.447961 -415275.97 808164.779 -392888.81  15.014932
  92500     .0925  414112.222  -382864.7 824.431532 -383689.13 796976.922 -413287.79 27.4810511
  93000      .093  427081.979 -343638.94 940.778486 -344579.72  770720.92  -426141.2 31.3592829
  93500     .0935  439470.275 -303087.67 998.321666 -304085.99 742557.944 -438471.95 33.2773889
  94000      .094  449565.474  -260508.9 1157.91599 -261666.82 710074.373 -448407.56 38.5971996
  94500     .0945   454579.27 -213754.83 1273.92416 -215028.75 668334.101 -453305.35 42.4641387
  95000      .095  452390.398 -165040.57 1336.78588 -166377.35 617430.965 -451053.61 44.5595294
  95500     .0955  435755.808 -110154.29 1397.47728 -111551.76 545910.093 -434358.33  46.582576
  96000      .096  403681.718 -47317.423 1314.48899 -48631.912 450999.142 -402367.23 43.8162996
  96500     .0965  365494.899 15130.6694 1055.44597 14075.2234  350364.23 -364439.45 35.1815322
  97000      .097  328067.185 72946.8857 757.046098 72189.8396 255120.299 -327310.14 25.2348699
  97500     .0975  289248.658 126765.933  489.98154 126275.952 162482.725 -288758.68  16.332718
  98000      .098  246494.315 177803.057 274.152543 177528.905 68691.2577 -246220.16  9.1384181
  98500     .0985  199650.132 224196.453 274.283399  223922.17 -24546.321 -199375.85 9.14277996
  99000      .099  141954.847 272213.287 435.626175 271777.661 -130258.44 -141519.22 14.5208725
  99500     .0995  76562.5911  320200.04 550.500146  319649.54 -243637.45 -76012.091 18.3500049
 100000       0.1  12864.5006 360761.384 591.074674  360170.31 -347896.88 -12273.426 19.7024891
 100500     .1005  -44697.245 390808.786 653.568425 390155.218 -435506.03  45350.813 21.7856142
 101000      .101  -98517.188 411766.431 797.380574  410969.05 -510283.62 99314.5686 26.5793525
 101500     .1015  -149970.68 425536.518 1011.11178 424525.406  -575507.2  150981.79  33.703726
 102000      .102  -198604.73 432010.759 1303.47119 430707.288 -630615.48 199908.197 43.4490395
 102500     .1025  -251599.35 437182.811 1551.64763 435631.163 -688782.16 253150.994 51.7215875
 103000      .103  -303655.98 437963.086 1624.98244 436338.103 -741619.07 305280.966 54.1660815
 103500     .1035  -346201.12 428553.385 1577.76442  426975.62  -774754.5 347778.884 52.5921473
 104000      .104  -377461.38 407842.197 1536.57811 406305.619 -785303.57 378997.955 51.2192702
 104500     .1045  -400092.14 378503.027 1521.19081 376981.836 -778595.17  401613.33 50.7063604
 105000      .105  -415614.06 342473.859 1509.20518 340964.653 -758087.92 417123.268 50.3068395
 105500     .1055  -425475.62 301357.183 1536.63289  299820.55 -726832.81 427012.258 51.2210964
 106000      .106  -435528.52 260732.296 1570.73102 259161.565 -696260.81 437099.249 52.3577005
 106500     .1065  -439613.24 217641.641 1508.23373 216133.407 -657254.88 441121.477 50.2744577
 107000      .107  -431210.28 167797.139 1403.37835 166393.761 -599007.42 432613.658 46.7792782
 107500     .1075   -411038.7 111671.978 1363.80619 110308.172 -522710.67 412402.502 45.4602063
 108000      .108  -382627.98 52574.1799 1378.98888  51195.191 -435202.16 384006.972  45.966296
 108500     .1085  -347882.74 -7920.0414 1450.83746 -9370.8789  -339962.7 349333.574 48.3612487
 109000      .109   -310282.5 -66376.959 1582.92842 -67959.887 -243905.54 311865.425 52.7642808
 109500     .1095  -273417.82 -118479.46 1672.57371 -120152.04 -154938.36 275090.396  55.752457
 110000       .11  -231884.06 -167710.74 1614.25397   -169325. -64173.316 233498.313 53.8084656
 110500     .1105   -181500.4 -217391.81 1499.85574 -218891.67 35891.4138 183000.251 49.9951914
 111000      .111  -124598.29 -266194.82 1431.65096 -267626.47 141596.526 126029.943 47.7216987
 111500     .1115  -65223.534 -310992.73 1387.71302 -312380.45   245769.2 66611.2475 46.2571007
 112000      .112  -5178.7273 -351016.45 1377.40133 -352393.85 345837.723 6556.12866 45.9133776
 112500     .1125  50527.9854 -382278.39 1375.89729 -383654.28 432806.372 -49152.088 45.8632429
 113000      .113  100513.352 -402919.85 1284.14321 -404203.99   503433.2 -99229.208 42.8047736
 113500     .1135  149817.123 -417130.42 1083.89836 -418214.32 566947.545 -148733.22 36.1299454
 114000      .114  201250.501  -427476.1 889.113788 -428365.22 628726.602 -200361.39 29.6371263
 114500     .1145  251834.183  -432750.8 765.400198  -433516.2 684584.986 -251068.78 25.5133399
 115000      .115   297832.74 -430872.74 688.423411 -431561.17 728705.483 -297144.32  22.947447
 115500     .1155  337987.746 -422026.36 674.986064 -422701.34 760014.102 -337312.76 22.4995355
 116000      .116  367269.084 -402765.48 692.429333 -403457.91 770034.563 -366576.65 23.0809778
 116500     .1165   386744.17 -373642.87 640.590944 -374283.46 760387.036 -386103.58 21.3530315
 117000      .117  401854.081 -339414.99 517.546922 -339932.54 741269.071 -401336.53 17.2515641
 117500     .1175  414506.021 -302425.52 411.714028 -302837.23 716931.538 -414094.31 13.7238009
 118000      .118  421912.333 -261950.96 366.116283 -262317.07 683863.289 -421546.22 12.2038761
 118500     .1185  421601.949 -217073.78 365.878476 -217439.66  638675.73 -421236.07 12.1959492
 119000      .119  412989.731 -168396.63 417.990319 -168814.62 581386.358 -412571.74 13.9330106
 119500     .1195  392391.858 -113460.73 473.705725 -113934.44 505852.593 -391918.15 15.7901908
 120000       .12  362958.057 -54633.283 438.963981 -55072.247  417591.34 -362519.09 14.6321327
 120500     .1205  330425.362 3199.87527 338.850056 2861.02522 327225.486 -330086.51 11.2950019
 121000      .121  296150.401 58152.3781 270.399299 57881.9788 237998.023   -295880. 9.01330998
 121500     .1215  258087.149 111043.478 263.286499 110780.192  147043.67 -257823.86 8.77621664
 122000      .122  215184.488 162071.549 304.217019 161767.332 53112.9391 -214880.27 10.1405673
 122500     .1225  166997.881 211068.139 391.262288 210676.877 -44070.258 -166606.62 13.0420763
 123000      .123  111659.047 259700.104 472.668258 259227.436 -148041.06 -111186.38 15.7556086
 123500     .1235  53596.1164 304926.392 478.142628 304448.249 -251330.28 -53117.974 15.9380876
 124000      .124  -1762.0961 342682.166 451.227418 342230.938 -344444.26 2213.32349 15.0409139
 124500     .1245  -53686.588 372177.543 471.919315 371705.624 -425864.13 54158.5077 15.7306438
 125000      .125  -103915.22 394862.679 539.392569 394323.286 -498777.89 104454.609 17.9797523
 125500     .1255  -152742.36 410898.502  644.39397 410254.108 -563640.86 153386.756  21.479799
 126000      .126  -201136.32 421317.254 779.901854 420537.352 -622453.57 201916.219 25.9967285
 126500     .1265  -249558.05 427496.495 884.864597  426611.63 -677054.55 250442.917 29.4954866
 127000      .127  -293385.23 426652.696 908.705193 425743.991 -720037.92 294293.931 30.2901731
  % % % % % %   Suspended simulation;  plot data space exhausted;  SPY SPACE is required.   LIMBUF =  340000.
  % % % % % %   Suspended simulation;  plot data space exhausted;  SPY SPACE is required.   LIMBUF =  340000.
  +++  Time-sharing disabled.   Send  user-keyed interrupt to silence alarm.
   Current values.  INDBUF  INDBEG  LIMBUF  MFLUSH  NUMDCD  KCARD1  KCARD2
                    339994      50  340000    1002      46       1      50
Plot timespan now in memory (in sec) = 8.49839970E-02   1.27477000E-01
   ++++  Begin plot-data copy from memory to disk.   MFLUSH, INDBUF, N4, Tbeg,  Tend = 1003  339994       1  -1.00000E+00
1.00000E+19
 127500     .1275  -328462.11 416177.467 904.253057 415273.214 -744639.58 329366.367 30.1417686
 128000      .128  -355197.22 396647.444 935.751311 395711.693 -751844.67 356132.972 31.1917104
 128500     .1285  -375681.87 370309.499  994.03978 369315.459 -745991.37 376675.908 33.1346593
 129000      .129  -390237.59  337844.23 1078.53214 336765.698 -728081.82 391316.125 35.9510713
 129500     .1295  -400795.41 301541.104 1174.54585 300366.558 -702336.51 401969.953 39.1515282
 130000       .13  -407217.37 262581.279 1218.22498 261363.054 -669798.65   408435.6 40.6074994
 130500     .1305  -405546.79 218746.313 1187.90275  217558.41 -624293.11 406734.696 39.5967582
 131000      .131  -393476.18 168868.331 1147.43939 167720.891 -562344.51 394623.619 38.2479797
 131500     .1315  -372757.57 114631.855 1145.25079 113486.604 -487389.42 373902.816 38.1750265
 132000      .132  -346028.85 58658.1204 1166.13227 57491.9881 -404686.97 347194.985 38.8710757
 132500     .1325  -314188.89  2053.0734 1206.47855 846.594857 -316241.96  315395.37 40.2159515
 133000      .133   -279978.8 -52404.421 1244.54919  -53648.97 -227574.38 281223.352 41.4849731
 133500     .1335  -243028.87 -104070.81 1222.10262 -105292.91 -138958.06 244250.968 40.7367541
 134000      .134  -200249.19 -154890.62 1139.57229 -156030.19  -45358.57 201388.763 37.9857431
 134500     .1345  -151032.53 -205243.49 1061.02958 -206304.52 54210.9605 152093.559 35.3676527
 135000      .135  -98111.365 -253122.11 1016.45767 -254138.57 155010.749 99127.8229 33.8819223
 135500     .1355  -44259.076  -296388.7 990.170424 -297378.87  252129.62 45249.2465 33.0056808
 136000      .136  9106.65049 -334039.54 977.900253 -335017.44 343146.194 -8128.7502 32.5966751
 136500     .1365  59280.7381 -363818.38 954.527749  -364772.9 423099.114  -58326.21 31.8175916
 137000      .137  107103.727 -386152.27 870.884495 -387023.15 493255.997 -106232.84 29.0294832
 137500     .1375  155131.262 -403246.27 744.534216  -403990.8 558377.531 -154386.73 24.8178072
 138000      .138  203021.917 -415475.87 639.023853 -416114.89 618497.788 -202382.89 21.3007951
 138500     .1385   247903.23 -421263.71 571.381296 -421835.09 669166.941 -247331.85 19.0460432
 139000      .139  287653.248 -419601.48 528.655458 -420130.13 707254.724 -287124.59 17.6218486
 139500     .1395  320886.039 -410014.88 504.089676 -410518.97 730900.916 -320381.95 16.8029892
 140000       .14   345902.26 -391451.75 466.296304 -391918.05 737354.014 -345435.96 15.5432101
 140500     .1405  364458.834 -365635.78 377.557254 -366013.33 730094.609 -364081.28 12.5852418
 141000      .141  379085.203 -335210.22 268.613589 -335478.83 714295.423 -378816.59 8.95378628
 141500     .1415  389339.637  -300845.4 196.278884 -301041.68 690185.036 -389143.36 6.54262947
 142000      .142  392981.771  -261656.7 163.793141 -261820.49 654638.469 -392817.98 5.45977136
 142500     .1425  389071.742 -217766.38 158.691446 -217925.08 606838.126 -388913.05 5.28971486
 143000      .143  376746.961 -169188.08 170.840524 -169358.92 545935.042 -376576.12 5.69468414
 143500     .1435  355802.274 -116032.13 164.528378 -116196.66 471834.408 -355637.75 5.48427925
 144000      .144  329053.081 -60898.424 115.606332  -61014.03 389951.505 -328937.47  3.8535444
 144500     .1445  299166.145 -6460.7475 62.4740189 -6523.2215 305626.892 -299103.67  2.0824673
 145000      .145  265934.558 46633.4325 50.6668253 46582.7657 219301.125 -265883.89 1.68889418
 145500     .1455  227970.588 98905.7154 74.6359069 98831.0795 129064.872 -227895.95 2.48786356
 146000      .146  185388.199 149774.829 123.583381 149651.246 35613.3698 -185264.62 4.11944602
 146500     .1465  137883.093 199250.769 184.597427 199066.171 -61367.676  -137698.5 6.15324757
 147000      .147  86490.1435 246704.059 220.394748 246483.664 -160213.92 -86269.749 7.34649161
 147500     .1475  34615.1078 289517.268 219.465756 289297.802 -254902.16 -34395.642  7.3155252
 148000      .148  -15335.547 325705.063 223.787228 325481.276 -341040.61 15559.3346 7.45957428
 148500     .1485  -63627.931 355281.348 266.570617 355014.777 -418909.28  63894.502 8.88568725
 149000      .149  -111160.26 379003.702 337.098676 378666.603 -490163.96 111497.361 11.2366225
 149500     .1495  -157491.65 396685.867 424.345588 396261.522 -554177.51 157915.992 14.1448529
 150000       .15  -202800.06 408905.228 511.683682 408393.545 -611705.29 203311.747 17.0561227
 150500     .1505  -245582.25 415206.384 563.875839 414642.509 -660788.63 246146.125 18.7958613
 151000      .151  -282700.19 413704.808 581.218331 413123.589   -696405.  283281.41 19.3739444
 151500     .1515   -312664.8 403617.944 606.557953 403011.387 -716282.75 313271.362 20.2185984
 152000      .152  -336362.63 386010.207  660.93514 385349.272 -722372.84 337023.565 22.0311713
 152500     .1525  -354792.98 362189.547 731.245608 361458.302 -716982.53 355524.226 24.3748536
 153000      .153  -368005.51 332792.103 806.944739 331985.158 -700797.62 368812.458  26.898158
 153500     .1535  -376525.75 299066.757 869.440358 298197.316 -675592.51 377395.195 28.9813453
 154000      .154  -379096.57 260959.108 889.742541 260069.365 -640055.67 379986.309 29.6580847
 154500     .1545  -373538.48 217489.807 878.812593 216610.994 -591028.29 374417.292 29.2937531
 155000      .155  -359675.14 168987.741  877.91309 168109.828 -528662.88 360553.054 29.2637697
 155500     .1555  -339293.66 117327.687 897.951272 116429.736 -456621.35 340191.614 29.9317091
 156000      .156  -313788.83 64114.6575 926.067174 63188.5904 -377903.49 314714.896 30.8689058
 156500     .1565  -284019.04 10551.6253 952.808574 9598.81674 -294570.66 284971.844 31.7602858
 157000      .157  -250918.93 -41921.498 958.182352  -42879.68 -208997.43  251877.11 31.9394117
 157500     .1575  -213670.32 -93327.565 921.294616  -94248.86 -120342.76 214591.616 30.7098205
 158000      .158   -171143.2 -144190.75 861.852175  -145052.6 -26952.457 172005.055 28.7284058
 158500     .1585  -124265.11 -193713.24 817.179649 -194530.42 69448.1303 125082.292 27.2393216
 159000      .159  -75401.825 -239957.02 790.425706 -240747.44 164555.194  76192.251 26.3475235
 159500     .1595  -26094.892 -281659.83 769.741203 -282429.57 255564.936 26864.6333 25.6580401
 160000       .16  22352.1776 -317749.54  746.27717 -318495.82 340101.718   -21605.9 24.8759057
 160500     .1605  69049.2714 -347350.98 699.711672 -348050.69 416400.254  -68349.56 23.3237224
 161000      .161  114748.295 -371056.94 618.243589 -371675.18 485805.233 -114130.05 20.6081196
 161500     .1615  160024.178 -389585.14 527.998655 -390113.14 549609.321 -159496.18 17.5999552
 162000      .162  203543.637 -402394.51 460.124926 -402854.64 605938.152 -203083.51 15.3374975
 162500     .1625  243111.846 -408226.83 412.055899 -408638.89 651338.681 -242699.79 13.7351966
 163000      .163  277613.844 -406687.06 372.938925   -407060. 684300.901 -277240.91 12.4312975
 163500     .1635   306026.52 -397410.36 333.804867 -397744.16 703436.879 -305692.72 11.1268289
 164000      .164  328150.668 -380562.97 275.100386 -380838.07 708713.637 -327875.57 9.17001285
 164500     .1645  345211.164 -357596.31 193.152437 -357789.46 702807.471 -345018.01 6.43841458
 165000      .165  357854.653 -329724.05 117.112077 -329841.16   687578.7 -357737.54 3.90373591
 165500     .1655  365043.661 -296952.24 70.1648058  -297022.4 661995.901  -364973.5 2.33882686
 166000      .166  365412.374 -258928.47 45.4817819 -258973.95 624340.846 -365366.89  1.5160594
 166500     .1665  358683.607 -216101.22 32.6350181 -216133.86 574784.829 -358650.97 1.08783394
 167000      .167  344633.867 -168828.52 21.3570598 -168849.88 513462.389 -344612.51 .711901995
 167500     .1675   324082.87 -118165.55 -6.3881231 -118159.16 442248.421 -324089.26 -.21293744
 168000      .168  298915.811 -66106.711 -47.696644 -66059.014 365022.521 -298963.51 -1.5898881
 168500     .1685  270095.811 -14064.342  -73.34957 -13990.993 284160.154 -270169.16 -2.4449857
 169000      .169  237114.711 37728.2053 -68.618071 37796.8233 199386.506 -237183.33  -2.287269
 169500     .1695  199546.126 89127.9492  -43.39653 89171.3457 110418.177 -199589.52  -1.446551
  % % % % % %   Suspended simulation;  plot data space exhausted;  SPY SPACE is required.   LIMBUF =  340000.
  % % % % % %   Suspended simulation;  plot data space exhausted;  SPY SPACE is required.   LIMBUF =  340000.
  +++  Time-sharing disabled.   Send  user-keyed interrupt to silence alarm.
   Current values.  INDBUF  INDBEG  LIMBUF  MFLUSH  NUMDCD  KCARD1  KCARD2
                    339994      50  340000    1003      46       1      50
Plot timespan now in memory (in sec) = 1.27476007E-01   1.69969000E-01
   ++++  Begin plot-data copy from memory to disk.   MFLUSH, INDBUF, N4, Tbeg,  Tend = 1004  339994       1  -1.00000E+00
1.00000E+19
 170000       .17  157835.315 139426.206 -7.9933263 139434.199 18409.1092 -157843.31 -.26644421
 170500     .1705  112493.506 188069.092 25.6370642 188043.455 -75575.586 -112467.87 .854568805
 171000      .171  65090.6205 233779.393 42.1377663 233737.255 -168688.77 -65048.483 1.40459221
 171500     .1715  17791.8161  274756.81 49.7700583 274707.039 -256964.99 -17742.046 1.65900194
 172000      .172  -28438.433 310055.827 75.5118133 309980.315 -338494.26 28513.9449 2.51706044
 172500     .1725  -73912.564 339840.051 126.310198 339713.741 -413752.62 74038.8746 4.21033993
 173000      .173  -118594.32 364159.123 190.516816 363968.606 -482753.44 118784.835 6.35056055
 173500     .1735  -161900.66 382765.457 258.157051   382507.3 -544666.12 162158.815 8.60523504
 174000      .174  -203139.26 395535.949 316.154187 395219.795 -598675.21 203455.413 10.5384729
 174500     .1745   -240677.5 401656.681 353.006673 401303.674 -642334.18 241030.502 11.7668891
 175000      .175  -272774.26 400158.323   381.3814 399776.942 -672932.58 273155.643 12.7127133
 175500     .1755   -299056.9 391063.867 424.671661 390639.195 -690120.76 299481.569  14.155722
 176000      .176  -320198.01 375323.599 483.856681 374839.743 -695521.61 320681.865  16.128556
 176500     .1765  -336361.37 353595.229  547.06887  353048.16 -689956.59 336908.434  18.235629
 177000      .177  -347446.22 326417.201 605.159237 325812.042 -673863.43 348051.384 20.1719746
 177500     .1775  -353152.94 294309.454 645.244645 293664.209 -647462.39 353798.182 21.5081548
 178000      .178  -352398.21 257128.991 660.774157 256468.217  -609527.2 353058.986 22.0258052
 178500     .1785  -344382.73 214821.635 668.117619 214153.517 -559204.37 345050.851 22.2705873
 179000      .179  -329686.89 168308.645  686.60868 167622.036 -497995.53 330373.498  22.886956
 179500     .1795  -309615.39 119132.813 713.347474 118419.466  -428748.2 310328.738 23.7782491
 180000       .18  -284862.97  68385.245 737.492974  67647.752 -353248.21 285600.462 24.5830991
 180500     .1805  -255998.39 17083.8847 751.056611 16332.8281 -273082.28 256749.452 25.0352204
 181000      .181  -223246.41 -33987.749 742.735959 -34730.484 -189258.67  223989.15 24.7578653
 181500     .1815   -186184.6 -84687.151 711.373173 -85398.524 -101497.45 186895.976 23.7124391
 182000      .182  -144914.27 -134655.24 675.903589 -135331.14 -10259.029 145590.171 22.5301196
 182500     .1825  -100772.83 -182683.12  651.33649 -183334.46 81910.2886 101424.169 21.7112163
 183000      .183  -55423.114  -227302.3  632.45618 -227934.75 171879.182 56055.5699 21.0818727
 183500     .1835  -9857.5644 -267596.95 610.033591 -268206.98 257739.386  10467.598  20.334453
 184000      .184  35066.6154 -302761.97 577.102758 -303339.07 337828.586 -34489.513 19.2367586
 184500     .1845  79001.8245 -332426.48 524.713878 -332951.19 411428.303 -78477.111 17.4904626
 185000      .185  122124.438 -356795.38 456.620054 -357252.01 478919.823 -121667.82 15.2206685
 185500     .1855  163977.317 -375776.48 392.619151 -376169.09 539753.792  -163584.7  13.087305
 186000      .186  203105.113 -388578.24 343.152751  -388921.4 591683.356 -202761.96  11.438425
 186500     .1865  238122.766 -394458.89 301.504713  -394760.4 632581.657 -237821.26 10.0501571
 187000      .187  268315.643 -393222.45 259.863566 -393482.31 661538.088 -268055.78 8.66211885
 187500     .1875  293183.624 -384820.53  211.69886 -385032.23 678004.156 -292971.93 7.05662865
 188000      .188  312849.599  -369734.9 150.462994 -369885.36 682584.501 -312699.14 5.01543314
 188500     .1885  327803.134 -348866.73 83.6204052 -348950.35 676669.861 -327719.51 2.78734684
 189000      .189  337846.604 -322717.23 29.8245888 -322747.05 660563.833 -337816.78 .994152959
 189500     .1895  342030.311 -291199.12 -5.2713077 -291193.84 633229.426 -342035.58 -.17571026
 190000       .19   339764.51 -254452.37 -29.638202 -254422.73 594216.882 -339794.15 -.98794005
 190500     .1905  331043.228  -213037.7 -50.335898 -212987.36 544080.925 -331093.56 -1.6778633
 191000      .191  316130.628 -167648.27 -74.049006 -167574.22 483778.901 -316204.68 -2.4683002
 191500     .1915  295912.104 -119468.54 -105.22247 -119363.32 415380.642 -296017.33 -3.5074156
 192000      .192  271414.233 -69860.538 -134.11122 -69726.427 341274.771 -271548.34 -4.4703739
 192500     .1925  242916.393 -19648.604  -144.9122 -19503.691 262564.996 -243061.31 -4.8304066
 193000      .193  210142.584 30864.0125 -136.58561 31000.5982 179278.572 -210279.17 -4.5528538
 193500     .1935  173303.847 81102.9403 -118.08765 81221.0279 92200.9063 -173421.93 -3.9362552
 194000      .194  133030.236 130263.076  -96.25007 130359.326 2767.15936 -133126.49 -3.2083357
 194500     .1945  90210.5227 177458.007 -78.003406 177536.011 -87247.485 -90288.526 -2.6001135
 195000      .195  46231.3845 221438.615 -65.828903 221504.444 -175207.23 -46297.213 -2.1942968
 195500     .1955  2347.31977 261037.586 -48.810288 261086.396 -258690.27 -2396.1301 -1.6270096
 196000      .196  -41004.253 295746.002   -14.8302 295760.833 -336750.26 40989.4231    -.49434
 196500     .1965  -83791.707 325500.872 33.3684901 325467.504 -409292.58  83825.076   1.112283
 197000      .197  -125507.84 349991.049 86.4889735  349904.56 -475498.88 125594.324 2.88296578
 197500     .1975  -165411.79 368836.933  137.90679 368699.026 -534248.73   165549.7 4.59689301
 198000      .198  -202555.87 381604.286 181.006733  381423.28 -584160.16 202736.877 6.03355776
 198500     .1985  -235681.25 387628.593 215.520035 387413.073 -623309.85 235896.773 7.18400118
 199000      .199  -263911.63 386516.282 252.941107 386263.341 -650427.92 264164.576 8.43137025
 199500     .1995  -287216.22 378563.306 301.801011 378261.505 -665779.52 287518.017 10.0600337
 200000       0.2  -305821.33 364372.239 356.924321 364015.315 -670193.57 306178.251 11.8974774
 200500     .2005  -319545.85 344307.681 409.626264 343898.055 -663853.53 319955.472 13.6542088
 201000      .201  -328103.48 318726.942 453.934915 318273.007 -646830.42 328557.412 15.1311638
 201500     .2015  -331032.04 287887.978 484.492586 287403.485 -618920.01 331516.528 16.1497529
 202000      .202  -327726.18 251890.796 503.659614 251387.136 -579616.98  328229.84 16.7886538
 202500     .2025  -318115.54 211177.403 523.203344 210654.199 -529292.94 318638.742 17.4401115
 203000      .203  -302905.07 166788.653 548.707192 166239.946 -469693.72 303453.776 18.2902397
 203500     .2035  -282868.55 119861.003 573.979364 119287.024 -402729.55 283442.526 19.1326455
 204000      .204  -258418.24 71257.6584 591.776564 70665.8819  -329675.9 259010.021 19.7258855
 204500     .2045  -229886.45 21788.4846 597.267976 21191.2166 -251674.93 230483.717 19.9089325
 205000      .205   -197402.5 -27940.013 587.116153 -28527.129 -169462.49 197989.618 19.5705384
 205500     .2055  -161052.21 -77466.364 566.412128 -78032.777 -83585.841 161618.618 18.8804043
 206000      .206  -121484.68 -126010.08 546.760919 -126556.85 4525.40694 122031.438  18.225364
 206500     .2065  -79945.816 -172366.91 531.394711 -172898.31 92421.0984 80477.2103  17.713157
 207000      .207  -37530.689 -215462.92 514.059257 -215976.98 177932.233 38044.7486 17.1353086
 207500     .2075  5027.11217 -254546.26 489.204231 -255035.47 259573.376 -4537.9079 16.3068077
 208000      .208  47134.2445 -289009.43 453.247376 -289462.68 336143.678 -46680.997 15.1082459
 208500     .2085  88464.0069 -318544.09 405.036503 -318949.12 407008.093  -88058.97 13.5012168
 209000      .209  128688.887 -342976.75 351.854404  -343328.6 471665.636 -128337.03 11.7284801
 209500     .2095  166974.226  -361857.5 304.346536 -362161.84 528831.724 -166669.88 10.1448845
 210000       .21  202122.502 -374489.64 263.605925 -374753.24 576612.138  -201858.9 8.78686416
 210500     .2105  233278.987 -380462.65 223.599584 -380686.25 613741.634 -233055.39 7.45331945
 211000      .211  259960.115 -379689.11 180.064844 -379869.17 639649.224 -259780.05 6.00216147
 211500     .2115  281899.005 -372278.86 130.311582 -372409.17 654177.864 -281768.69 4.34371941
 212000      .212  299131.542 -358655.31 74.9321412 -358730.25 657786.857 -299056.61 2.49773804
  % % % % % %   Suspended simulation;  plot data space exhausted;  SPY SPACE is required.   LIMBUF =  340000.
  % % % % % %   Suspended simulation;  plot data space exhausted;  SPY SPACE is required.   LIMBUF =  340000.
  +++  Time-sharing disabled.   Send  user-keyed interrupt to silence alarm.
   Current values.  INDBUF  INDBEG  LIMBUF  MFLUSH  NUMDCD  KCARD1  KCARD2
                    339994      50  340000    1004      46       1      50
Plot timespan now in memory (in sec) = 1.69967994E-01   2.12461000E-01
   ++++  Begin plot-data copy from memory to disk.   MFLUSH, INDBUF, N4, Tbeg,  Tend = 1005  339994       1  -1.00000E+00
1.00000E+19
 212500     .2125  311647.907 -339308.65 22.3120633 -339330.96 650956.558  -311625.6 .743735442
 213000      .213  318997.901 -314448.15 -18.860906 -314429.29 633446.048 -319016.76 -.62869686
 213500     .2135  320576.025 -284146.33 -49.704084 -284096.62 604722.351 -320625.73 -1.6568028
 214000      .214  316215.847 -248795.11 -76.191222 -248718.92 565010.956 -316292.04 -2.5397074
 214500     .2145  306087.427  -209029.6 -102.01567 -208927.58 515117.026 -306189.44 -3.4005222
 215000      .215  290599.535 -165654.06 -129.49774 -165524.57 456253.599 -290729.03 -4.3165914
 215500     .2155  270416.917 -119696.89 -156.96362 -119539.93 390113.809 -270573.88 -5.2321206
 216000      .216  246066.701 -72115.857 -176.09994 -71939.757 318182.559  -246242.8 -5.8699981
 216500     .2165  217660.631 -23528.016 -180.92765 -23347.088 241188.647 -217841.56 -6.0309217
 217000      .217   185281.73 25551.8941 -174.72829 25726.6224 159729.835 -185456.46 -5.8242762
 217500     .2175  149428.022 74360.7207 -163.55727  74524.278 75067.3016 -149591.58 -5.4519091
 218000      .218  110835.861 122024.177 -151.04063 122175.218 -11188.316  -110986.9 -5.0346878
 218500     .2185  70425.9574 167582.604 -139.37079 167721.975 -97156.647 -70565.328  -4.645693
 219000      .219  29244.5028 209998.808 -126.20403 210125.012  -180754.3 -29370.707 -4.2068011
 219500     .2195  -11933.945 248461.754 -104.06039 248565.814  -260395.7 11829.8842 -3.4686797
 220000       .22  -52761.147 282562.621 -69.784017 282632.405 -335323.77 52691.3631 -2.3261339
 220500     .2205  -92865.774 311985.147 -28.319424 312013.466 -404850.92 92837.4548  -.9439808
 221000      .221  -131565.62 336263.845 14.4232304 336249.422 -467829.46 131580.043 .480774346
 221500     .2215  -168065.25 354933.234 54.9247418 354878.309 -522998.49  168120.18 1.83082473
 222000      .222  -201477.22 367513.052 91.3810605 367421.671 -568990.27 201568.598 3.04603535
 222500     .2225  -230945.69 373567.151 126.841575  373440.31 -604512.84 231072.533 4.22805251
 223000      .223  -256007.57 372983.109 167.788056 372815.321 -628990.67 256175.354  5.5929352
 223500     .2235  -276619.22  366043.05 215.103435 365827.947 -642662.27 276834.324 7.17011448
 224000      .224   -292683.5 353072.913 263.116052 352809.797 -645756.42 292946.618 8.77053508
 224500     .2245  -303898.06 334298.611 306.625687 333991.986 -638196.67 304204.689 10.2208562
 225000      .225  -309934.16 309973.508 342.699791 309630.808 -619907.67 310276.858 11.4233264
 225500     .2255  -310436.93 280338.425 370.508348 279967.917 -590775.35 310807.435 12.3502783
 226000      .226  -305193.45 245717.943  394.08476 245323.859 -550911.39 305587.534 13.1361587
 226500     .2265   -294429.1 206756.682 419.113576 206337.568 -501185.78 294848.209 13.9704525
 227000      .227  -278710.88 164387.492 445.055828 163942.436 -443098.37 279155.936 14.8351943
 227500     .2275   -258491.3 119477.768 466.501794 119011.266 -377969.07 258957.804 15.5500598
 228000      .228  -234062.99 72768.8077 479.504371 72289.3033  -306831.8 234542.495  15.983479
 228500     .2285  -205698.55 24968.9858 482.214811  24486.771 -230667.54 206180.765  16.073827
 229000      .229  -173646.36 -23288.677 475.245591 -23763.923 -150357.68 174121.607 15.8415197
 229500     .2295  -138323.87 -71321.544  463.70801 -71785.252 -67002.324 138787.576 15.4569337
 230000       .23  -100536.34 -118209.31 452.620435 -118661.93 17672.9743 100988.958 15.0873478
 230500     .2305  -61276.479 -162910.12 440.676857  -163350.8 101633.644 61717.1562 14.6892286
 231000      .231  -21324.716 -204577.11 423.313481 -205000.43 183252.396 21748.0296 14.1104494
 231500     .2315  18717.8662 -242549.77 397.968343 -242947.73 261267.633 -18319.898 13.2656114
 232000      .232  58329.0776 -276290.35 363.980804 -276654.33 334619.428 -57965.097 12.1326935
 232500     .2325  97054.4543 -305405.03 323.387166 -305728.42 402459.483 -96731.067 10.7795722
 233000      .233  134301.814 -329495.11 281.987676  -329777.1 463796.927 -134019.83 9.39958921
 233500     .2335  169199.467 -348014.63  243.91087 -348258.54 517214.099 -168955.56 8.13036232
 234000      .234  200867.008 -360443.02 207.267943 -360650.29 561310.032 -200659.74 6.90893143
 234500     .2345  228726.785 -366533.17 168.326937  -366701.5  595259.96 -228558.46 5.61089792
 235000      .235  252415.216 -366248.75 125.527909 -366374.28 618663.969 -252289.69 4.18426362
 235500     .2355  271709.981 -359718.73  79.024025 -359797.75  631428.71 -271630.96 2.63413417
 236000      .236   286486.79 -347222.04  31.751422 -347253.79 633708.831 -286455.04 1.05838073
 236500     .2365  296511.193 -329022.16 -10.599427 -329011.56 625533.349 -296521.79 -.35331424
 237000      .237  301367.296 -305269.22 -45.285818 -305223.94 606636.519 -301412.58 -1.5095273
 237500     .2375  300760.781 -276202.24 -74.945247  -276127.3 576963.026 -300835.73 -2.4981749
 238000      .238  294726.172 -242315.26 -102.88272 -242212.38 537041.435 -294829.05  -3.429424
 238500     .2385  283502.667 -204260.97 -130.28525 -204130.69 487763.637 -283632.95 -4.3428416
 239000      .239  267475.456 -162815.05 -156.75126  -162658.3 430290.503 -267632.21 -5.2250418
 239500     .2395  247094.632 -118824.01 -179.13746 -118644.87 365918.642 -247273.77 -5.9712485
 240000       .24   222675.55 -73037.073 -192.67617 -72844.397 295712.623 -222868.23 -6.4225389
 240500     .2405  194393.182 -26057.904 -196.40856 -25861.495 220451.086 -194589.59  -6.546952
 241000      .241   162584.61 21443.3234 -193.84901 21637.1724 141141.286 -162778.46 -6.4616338
 241500     .2415  127856.121 68639.1569 -188.23141 68827.3883  59216.964 -128044.35 -6.2743803
 242000      .242  90945.0955 114650.257 -180.80558 114831.063 -23705.162 -91125.901 -6.0268525
 242500     .2425  52667.7699 158572.616 -171.25472 158743.871 -105904.85 -52839.025 -5.7084908
 243000      .243  13808.2702 199553.996 -156.66157 199710.658 -185745.73 -13964.932 -5.2220524
 243500     .2435  -25056.575 236945.469 -133.58445 237079.054 -262002.04 24922.9907 -4.4528149
 244000      .244  -63498.539  270292.19 -102.79355 270394.983 -333790.73 63395.7455 -3.4264515
 244500     .2445  -100957.92 299123.818 -68.439029 299192.257 -400081.74 100889.479  -2.281301
 245000      .245  -136716.15 322920.059 -33.654864 322953.714 -459636.21 136682.493 -1.1218288
 245500     .2455  -170026.09 341202.343 .281469551 341202.061 -511228.43  170026.37 .009382318
 246000      .246  -200158.84  353550.88    33.7271 353517.153 -553709.72 200192.562 1.12423667
 246500     .2465  -226527.49 359688.786 69.3959899  359619.39 -586216.28 226596.888 2.31319966
 247000      .247  -248820.49 359599.557 109.550985 359490.006 -608420.05 248930.042 3.65169951
 247500     .2475  -266880.79 353458.022 152.252493  353305.77 -620338.81 267033.042  5.0750831
 248000      .248  -280460.81 341433.646 193.335003 341240.311 -621894.45 280654.141  6.4445001
 248500     .2485  -289247.83 323692.163 230.166088 323461.997 -612939.99 289477.992 7.67220292
 249000      .249  -292970.19 300461.089 261.860358 300199.228 -593431.28  293232.05 8.72867862
 249500     .2495  -291437.92 272038.423 289.257218 271749.166 -563476.34 291727.174 9.64190725
 250000       .25  -284662.34 238873.491 315.176239 238558.314 -523535.83 284977.518 10.5058746
 250500     .2505  -272935.55 201642.166  341.16546    201301. -474577.71 273276.711  11.372182
 251000      .251  -256657.35 161127.831 364.881377  160762.95 -417785.18 257022.234 12.1627126
 251500     .2515  -236134.05 118050.684 382.825238 117667.858 -354184.73 236516.876 12.7608413
 252000      .252  -211633.94 73092.6766 393.312752 72699.3638 -284726.62 212027.251 13.1104251
 252500     .2525  -183464.45 26938.5753 396.282684 26542.2926 -210403.02  183860.73 13.2094228
 253000      .253  -152009.48 -19715.289 393.423619 -20108.712 -132294.19 152402.905 13.1141206
 253500     .2535  -117835.64 -66084.789  387.87158 -66472.661 -51750.848 118223.509 12.9290527
 254000      .254  -81716.338 -111261.97 380.824842 -111642.79 29545.6318 82097.1627 12.6941614
 254500     .2545  -44427.248 -154362.62 370.079005  -154732.7 109935.371 44797.3275 12.3359668
  % % % % % %   Suspended simulation;  plot data space exhausted;  SPY SPACE is required.   LIMBUF =  340000.
  % % % % % %   Suspended simulation;  plot data space exhausted;  SPY SPACE is required.   LIMBUF =  340000.
  +++  Time-sharing disabled.   Send  user-keyed interrupt to silence alarm.
   Current values.  INDBUF  INDBEG  LIMBUF  MFLUSH  NUMDCD  KCARD1  KCARD2
                    339994      50  340000    1005      46       1      50
Plot timespan now in memory (in sec) = 2.12459996E-01   2.54953000E-01
   ++++  Begin plot-data copy from memory to disk.   MFLUSH, INDBUF, N4, Tbeg,  Tend = 1006  339994       1  -1.00000E+00
1.00000E+19
 255000      .255  -6597.3231 -194655.98 353.149184 -195009.13 188058.658 6950.47232 11.7716395
 255500     .2555  31218.3805 -231520.97 329.417934 -231850.38 262739.347 -30888.963 10.9805978
 256000      .256  68483.7096 -264417.65 299.726557 -264717.37 332901.355 -68183.983 9.99088522
 256500     .2565  104639.818 -292866.85 266.569252 -293133.42  397506.67 -104373.25 8.88564172
 257000      .257  139012.975 -316374.23 233.222962 -316607.45 455387.207 -138779.75 7.77409873
 257500     .2575  170837.127 -334424.05 200.524244 -334624.57 505261.177  -170636.6 6.68414145
 258000      .258  199462.799 -346630.14 166.486587 -346796.63 546092.938 -199296.31 5.54955289
 258500     .2585  224446.815 -352814.03  129.48138 -352943.51 577260.842 -224317.33   4.316046
 259000      .259  245467.387 -352944.23 89.6267927 -353033.86 598411.615 -245377.76 2.98755976
 259500     .2595   262278.34 -347107.57 48.3091484 -347155.88 609385.914 -262230.03 1.61030495
 260000       .26  274655.549 -335469.88 8.35110337 -335478.23 610125.429  -274647.2 .278370112
 260500     .2605  282316.134 -318198.42 -27.356732 -318171.06 600514.552 -282343.49 -.91189105
 261000      .261  284975.116 -295477.86 -58.667512  -295419.2 580452.979 -285033.78 -1.9555837
 261500     .2615  282533.743 -267645.82 -87.624074 -267558.19  550179.56 -282621.37 -2.9208025
 262000      .262  275109.677 -235219.77 -115.47733 -235104.29 510329.448 -275225.15 -3.8492442
 262500     .2625  262943.921 -198825.56 -141.93357 -198683.62 461769.477 -263085.85 -4.7311189
 263000      .263  246354.137 -159163.35 -165.60134 -158997.75 405517.489 -246519.74 -5.5200446
 263500     .2635  225667.429   -116952. -183.93989 -116768.06 342619.426 -225851.37 -6.1313296
 264000      .264   201152.03 -72856.074 -194.99549 -72661.078 274008.104 -201347.03 -6.4998496
 264500     .2645  173098.205 -27522.645  -199.6216 -27323.024 200620.851 -173297.83 -6.6540533
 265000      .265   141971.53 18305.6396 -200.18566 18505.8253 123665.891 -142171.72 -6.6728555
 265500     .2655  108393.486 63802.1303 -197.96827 64000.0986 44591.3554 -108591.45 -6.5989423
 266000      .266  73047.9136 108126.662  -192.8998 108319.562 -35078.748 -73240.813 -6.4299932
 266500     .2665  36631.6672 150460.689 -183.92249 150644.611 -113829.02  -36815.59 -6.1307497
 267000      .267  -219.20491 190067.977 -169.13199 190237.109 -190287.18  50.072924  -5.637733
 267500     .2675  -36977.783 226350.155 -147.71884 226497.874 -263327.94 36830.0637 -4.9239613
 268000      .268  -73125.652 258786.186 -121.49777 258907.683 -331911.84 73004.1543 -4.0499258
 268500     .2685  -108036.84 286839.386 -93.104511 286932.491 -394876.23 107943.734 -3.1034837
 269000      .269  -141028.57 309988.665 -63.883541 310052.549 -451017.23 140964.685 -2.1294514
 269500     .2695  -171444.31 327785.101 -33.971221 327819.072 -499229.41 171410.341  -1.132374
 270000       .27  -198700.37 339880.271 -2.5662921 339882.837 -538580.64 198697.805 -.08554307
 270500     .2705  -222353.92 346078.885 31.6838642 346047.201 -568432.81 222385.609 1.05612881
 271000      .271  -242121.16  346365.21 68.7043702 346296.506 -588486.37  242189.86 2.29014567
 271500     .2715  -257759.36 340818.202 106.174635 340712.027 -598577.56 257865.535 3.53915448
 272000      .272  -268982.89 329534.722 141.604753 329393.117 -598517.62 269124.499 4.72015842
 272500     .2725  -275525.86 312664.779 173.916237 312490.863 -588190.64 275699.781  5.7972079
 273000      .273  -277205.83 290447.839 203.136319 290244.703 -567653.67 277408.967 6.77121062
 273500     .2735  -273961.36 263230.585 230.189796 263000.395 -537191.95 274191.554 7.67299319
 274000      .274   -265903.8 231504.782 256.250616 231248.531 -497408.58 266160.049 8.54168722
 274500     .2745  -253299.48  195901.46 280.879533 195620.581 -449200.95 253580.364  9.3626511
 275000      .275  -236440.62 157089.425 301.870669 156787.554 -393530.05 236742.495 10.0623556
 275500     .2755  -215588.24 115715.647 317.382713 115398.265 -331303.89 215905.625 10.5794238
 276000      .276  -191033.98 72438.6306 327.000171 72111.6304 -263472.61 191360.981 10.9000057
 276500     .2765  -163143.26 27948.4347 331.305578 27617.1291  -191091.7  163474.57 11.0435193
 277000      .277  -132382.93 -17021.717 331.685609 -17353.403 -115361.22 132714.618  11.056187
 277500     .2775  -99353.676 -61669.749  329.44288 -61999.192 -37683.927 99683.1187 10.9814293
 278000      .278  -64740.238 -105155.29 324.179284 -105479.47 40415.0495 65064.4168 10.8059761
 278500     .2785   -29183.36 -146702.08 314.213853 -147016.29 117518.715 29497.5741 10.4737951
 279000      .279  6750.63043 -185634.19 298.591195 -185932.78  192384.82 -6452.0392 9.95303985
 279500     .2795  42511.9652  -221341.4 277.678718 -221619.08 263853.365 -42234.287 9.25595725
 280000       .28  77537.6053 -253264.22 252.694961 -253516.92 330801.826  -77284.91 8.42316536
 280500     .2805  111227.923 -280878.93  225.48096 -281104.41 392106.857 -111002.44 7.51603199
 281000      .281  142929.119 -303676.35 197.432482 -303873.78 446605.471 -142731.69 6.58108272
 281500     .2815  172002.959 -321204.15 168.227796 -321372.38 493207.107 -171834.73  5.6075932
 282000      .282  197937.847 -333153.29 136.695377 -333289.98 531091.135 -197801.15 4.55651257
 282500     .2825  220350.116 -339365.06 102.575432 -339467.64 559715.178 -220247.54 3.41918108
 283000      .283  238926.757  -339789.9 66.7380929 -339856.64 578716.661 -238860.02  2.2246031
 283500     .2835  253398.329 -334467.15 30.7243996 -334497.87 587865.479  -253367.6 1.02414665
 284000      .284  263512.517 -323499.63 -3.5540715 -323496.08 587012.147 -263516.07 -.11846905
 284500     .2845  269024.815 -307031.82 -34.975326 -306996.85 576056.639 -269059.79 -1.1658442
 285000      .285  269774.338 -285293.86 -64.071427 -285229.79 555068.194 -269838.41 -2.1357142
 285500     .2855  265765.459 -258662.27 -91.845191 -258570.42 524427.724  -265857.3 -3.0615064
 286000      .286  257140.128 -227639.22 -118.32633  -227520.9 484779.352 -257258.45 -3.9442109
 286500     .2865  244118.401 -192804.82 -142.63437 -192662.18 436923.218 -244261.04 -4.7544789
 287000      .287  226967.332 -154789.07 -163.39165 -154625.68 381756.401 -227130.72 -5.4463884
 287500     .2875  205968.632 -114237.48  -179.1154 -114058.37 320206.114 -206147.75 -5.9705132
 288000      .288  181415.239  -71791.39 -189.37302 -71602.017 253206.628 -181604.61  -6.312434
 288500     .2885  153684.477 -28131.526 -195.21576 -27936.311 181816.004 -153879.69 -6.5071919
 289000      .289  123287.057 15985.4282 -197.81619 16183.2444 107301.629 -123484.87  -6.593873
 289500     .2895   90817.552 59764.9084 -197.36904 59962.2774 31052.6437 -91014.921 -6.5789679
 290000       .29  56895.4675 102421.358 -193.34095 102614.699  -45525.89 -57088.808 -6.4446983
 290500     .2905  22131.3383 143207.578  -184.8286 143392.406 -121076.24 -22316.167 -6.1609534
 291000      .291  -12906.665 181448.818 -171.04632 181619.864 -194355.48 12735.6184 -5.7015441
 291500     .2915  -47686.274  216551.04 -152.38698 216703.427 -264237.31 47533.8871 -5.0795661
 292000      .292  -81641.928 247953.587 -130.44349 248084.031 -329595.51 81511.4841 -4.3481162
 292500     .2925  -114152.08 275107.671  -106.5973 275214.269 -389259.75 114045.478 -3.5532432
 293000      .293  -144597.41  297516.88 -81.259716 297598.139 -442114.29  144516.15 -2.7086572
 293500     .2935  -172411.66 314773.111  -54.23024 314827.341 -487184.77 172357.425 -1.8076747
 294000      .294  -197111.14 326577.941 -25.012507 326602.954 -523689.08 197086.123 -.83375023
 294500     .2945  -218319.69 332765.397 6.61189591 332758.785 -551085.09 218326.303  .22039653
 295000      .295  -235745.63 333290.356 39.6873689 333250.668 -569035.99 235785.321  1.3229123
 295500     .2955  -249114.03 328173.744 72.4191813 328101.325 -577287.77 249186.445 2.41397271
 296000      .296  -258159.88  317487.16 103.519038 317383.641 -575647.04 258263.403  3.4506346
 296500     .2965  -262681.96  301384.92 132.648795 301252.271 -564066.88 262814.605  4.4216265
 297000      .297  -262578.38 280123.612 160.011077 279963.601 -542701.99 262738.391 5.33370258
  % % % % % %   Suspended simulation;  plot data space exhausted;  SPY SPACE is required.   LIMBUF =  340000.
  % % % % % %   Suspended simulation;  plot data space exhausted;  SPY SPACE is required.   LIMBUF =  340000.
  +++  Time-sharing disabled.   Send  user-keyed interrupt to silence alarm.
   Current values.  INDBUF  INDBEG  LIMBUF  MFLUSH  NUMDCD  KCARD1  KCARD2
                    339994      50  340000    1006      46       1      50
Plot timespan now in memory (in sec) = 2.54952013E-01   2.97445000E-01
   ++++  Begin plot-data copy from memory to disk.   MFLUSH, INDBUF, N4, Tbeg,  Tend = 1007  339994       1  -1.00000E+00
1.00000E+19
 297500     .2975  -257865.22 254070.937 186.049776 253884.887 -511936.16 258051.274  6.2016592
 298000      .298  -248685.41 223712.329 210.811464 223501.518 -472397.74 248896.224  7.0270488
 298500     .2985  -235266.21 189618.804 233.261342 189385.543 -424885.01 235499.467 7.77537806
 299000      .299  -217852.83 152387.644 251.893644  152135.75 -370240.48 218104.726 8.39645481
 299500     .2995  -196710.23 112631.061 265.921307  112365.14 -309341.29 196976.153 8.86404355
 300000       0.3  -172165.74  70998.342 275.446008 70722.8959 -243164.08 172441.185 9.18153361
 300500     .3005  -144628.79 28182.5348 281.036837 27901.4979 -172811.33  144909.83 9.36789457
 301000      .301  -114597.85 -15079.222 283.420719 -15362.643 -99518.626 114881.269  9.4473573
 301500     .3015  -82652.958 -58011.047 282.812465 -58293.859 -24641.912 82935.7709 9.42708215
 302000      .302  -49398.836 -99842.368 278.468781 -100120.84 50443.5322 49677.3046 9.28229269
 302500     .3025  -15405.419 -139861.67  269.48368 -140131.16 124456.256 15674.9025 8.98278934
 303000      .303    18782.49 -177418.83  255.76441  -177674.6 196201.321 -18526.726 8.52548035
 303500     .3035  52611.6878 -211906.14 237.981947 -212144.12 264517.826 -52373.706 7.93273156
 304000      .304  85510.3943 -242754.49 217.163534 -242971.65  328264.88 -85293.231 7.23878447
 304500     .3045  116886.976 -269432.15 194.356404 -269626.51 386319.129 -116692.62 6.47854679
 305000      .305  146147.144 -291452.89 169.970309 -291622.86 437600.036 -145977.17 5.66567697
 305500     .3055  172754.039  -308419.1 143.578019 -308562.67 481173.136 -172610.46 4.78593395
 306000      .306  196271.538 -320058.59 114.808912  -320173.4 516330.126 -196156.73 3.82696374
 306500     .3065  216343.069  -326211.7 84.0870624 -326295.78 542554.765 -216258.98 2.80290208
 307000      .307  232660.469 -326807.63 52.4242042 -326860.06 559468.103 -232608.04 1.74747347
 307500     .3075  244954.176 -321854.34 21.0428529 -321875.38 566808.517 -244933.13 .701428429
 308000      .308  252989.873 -311429.13  -8.988971 -311420.14 564419.005 -252998.86 -.29963237
 308500     .3085  256587.318 -295682.81 -37.353918 -295645.46 552270.127 -256624.67 -1.2451306
 309000      .309  255672.373  -274873.1 -64.446143 -274808.65  530545.47 -255736.82 -2.1482048
 309500     .3095  250297.465  -249379.3 -90.455183 -249288.85  499676.77 -250387.92 -3.0151728
 310000       .31    240606.8 -219673.73 -114.86163 -219558.87 460280.532 -240721.66 -3.8287209
 310500     .3105  226802.809 -186291.46 -136.73981 -186154.72 413094.267 -226939.55 -4.5579937
 311000      .311  209131.352 -149812.23 -155.09574 -149657.13 358943.579 -209286.45 -5.1698579
 311500     .3115    187873.1 -110843.63 -169.25166 -110674.38  298716.73 -188042.35 -5.6417221
 312000      .312  163360.358 -70022.262 -179.33631 -69842.926 233382.621 -163539.69 -5.9778771
 312500     .3125  136016.072 -28037.318  -186.0318 -27851.286  164053.39  -136202.1 -6.2010599
 313000      .313  106352.215 14372.3274 -189.69798 14562.0254 91979.8877 -106541.91 -6.3232659
 313500     .3135  74925.4731 56454.6867 -190.07967 56644.7664 18470.7864 -75115.553  -6.335989
 314000      .314  42302.8434 97475.3361  -186.6527 97661.9888 -55172.493 -42489.496 -6.2217568
 314500     .3145   9043.8184 136736.945  -178.9236 136915.868 -127693.13  -9222.742 -5.9641199
 315000      .315  -24309.487 173595.203 -166.81813 173762.021 -197904.69 24142.6684 -5.5606042
 315500     .3155  -57214.622 207453.098   -151.034 207604.132 -264667.72  57063.588 -5.0344668
 316000      .316  -89100.137 237740.476 -132.61567 237873.091 -326840.61 88967.5215 -4.4205224
 316500     .3165  -119381.01 263923.738 -112.17043 264035.909 -383304.75 119268.842 -3.7390142
 317000      .317  -147503.07 285538.645 -89.756981 285628.402 -433041.72 147413.318 -2.9918994
 317500     .3175  -172971.45 302212.059 -65.238415 302277.298 -475183.51 172906.209 -2.1746138
 318000      .318  -195364.26 313673.637 -38.552878 313712.189  -509037.9 195325.712 -1.2850959
 318500     .3185  -214335.69 319761.156 -10.090386 319771.246 -534096.85 214325.602  -.3363462
 319000      .319  -229591.41 320402.805  19.105684   320383.7 -549994.21 229610.513 .636856134
 319500     .3195  -240864.07 315593.341 47.8810444  315545.46 -556457.41  240911.95 1.59603481
 320000       .32  -247932.16 305401.205 75.6231627 305325.582 -553333.37 248007.784 2.52077209
 320500     .3205  -250655.07 289989.362  102.22367 289887.138 -540644.43 250757.295 3.40745565
 321000      .321   -248989.2 269622.876 127.738534 269495.138 -518612.08 249116.943 4.25795113
 321500     .3215  -242991.38 244668.289 152.132898 244516.156 -487659.67 243143.515  5.0710966
 322000      .322  -232809.18 215584.626 174.930728 215409.695  -448393.8 232984.107 5.83102426
 322500     .3225  -218646.72 182893.082 195.161469 182697.921  -401539.8 218841.884 6.50538231
 323000      .323  -200740.92 147149.714 211.960095 146937.754 -347890.63 200952.881 7.06533649
 323500     .3235  -179377.56 108948.139 225.063727 108723.075  -288325.7 179602.628 7.50212424
 324000      .324  -154913.55 68928.9121 234.658143  68694.254 -223842.47 155148.212 7.82193809
 324500     .3245  -127780.07 27776.1227 241.059703  27535.063  -155556.2 128021.134 8.03532344
 325000      .325  -98475.564 -13791.657 244.464822 -14036.122 -84683.907 98720.0288 8.14882739
 325500     .3255   -67544.42 -55039.699 244.641303 -55284.341 -12504.721 67789.0614 8.15471011
 326000      .326  -35537.123 -95252.306 241.009057 -95493.315 59715.1829 35778.1323 8.03363522
 326500     .3265  -2989.8575 -133756.43 233.243245 -133989.67 130766.573 3223.10075 7.77477483
 327000      .327  29561.0194 -169917.67 221.607723 -170139.28 199478.687 -29339.412 7.38692409
 327500     .3275  61565.6369  -203134.5 206.720438 -203341.22 264700.135 -61358.916 6.89068127
 328000      .328  92464.2451 -232843.26 189.261102 -233032.52 325307.506 -92274.984 6.30870339
 328500     .3285  121698.557 -258526.45 169.722567 -258696.18  380225.01 -121528.83 5.65741891
 329000      .329  148737.331 -279730.62 148.161159 -279878.78 428467.954 -148589.17 4.93870532
 329500     .3295  173112.861 -296095.28 124.392051 -296219.67 469208.137 -172988.47 4.14640169
 330000       .33  194431.231 -307363.79 98.5534306 -307462.34 501795.017 -194332.68 3.28511435
[...]
                                   6  6.9931070E-01    7  6.9985771E-01

                   611107.156 -652588.13 -640535.48 .1026517E7 953740.018 -.102284E7 2410.86735
Times of maxima :     .017811     .71375    .003157    .004049    .715145    .002245     .01448
             Random switching times for simulation number  298  :
                                   1  5.4402657E-02    2  5.4726493E-02    3  5.5809066E-02    4  1.1302849E-02    5  6.9999931E-01
                                   6  6.9999918E-01    7  7.0135056E-01

                   596424.312 -651454.17 -640535.48 .1026517E7 854271.147 -.102284E7 2298.73695
Times of maxima :     .018058    .713702    .003157    .004049    .068128    .002245    .713915
             Random switching times for simulation number  299  :
                                   1  5.4359107E-02    2  5.5309833E-02    3  5.5354775E-02    4  9.7516764E-03    5  7.0067447E-01
                                   6  7.0174165E-01    7  7.0054964E-01

                   611755.478 -641726.54 -640535.48 .1026517E7 855119.843 -.102284E7 2289.15077
Times of maxima :     .017848    .713695    .003157    .004049    .068132    .002245     .01465
             Random switching times for simulation number  300  :
                                   1  5.6212631E-02    2  5.5400460E-02    3  5.4330646E-02    4  9.8967378E-03    5  7.0009595E-01
                                   6  7.0031249E-01    7  6.9985806E-01

                   611870.209  -648273.5 -640535.48 .1026517E7 855050.075 -.102284E7  2288.1526
Times of maxima :     .017852    .713732    .003157    .004049    .068132    .002245    .713918

 MAIN20 dumps OVER12 dice seed  SEEDSV =   3.0444871000000000E+09

Statistical output of  node  voltage   0.4287E+06 |              X0003AX0003BX0003C

1 ) -------------------------------------------------------------------------------------------------------------------------------
Statistical distribution of peak voltage at node  "X0003A".   The base voltage for per unit printout is  V-base = 4.28660705E+05
  Interval             voltage         voltage  in     Frequency    Cumulative               Per cent
    number         in per unit      physical units     (density)     frequency     .GE. current value
        26           1.3000000      5.57258917E+05             0             0          100.000000
        27           1.3500000      5.78691952E+05             1             1           99.666667
        28           1.4000000      6.00124987E+05            20            21           93.000000
        29           1.4500000      6.21558022E+05           270           291            3.000000
        30           1.5000000      6.42991058E+05             1           292            2.666667
        31           1.5500000      6.64424093E+05             0           292            2.666667
        32           1.6000000      6.85857128E+05             1           293            2.333333
        33           1.6500000      7.07290163E+05             0           293            2.333333
        34           1.7000000      7.28723199E+05             2           295            1.666667
        35           1.7500000      7.50156234E+05             1           296            1.333333
        36           1.8000000      7.71589269E+05             3           299             .333333
        37           1.8500000      7.93022304E+05             0           299             .333333
        38           1.9000000      8.14455340E+05             1           300             .000000
Summary of preceding table follows:       Grouped data     Ungrouped data
                                 Mean = 1.42966667E+00     1.42877340E+00
                             Variance = 2.88784838E-03     2.68439222E-03
                   Standard deviation = 5.37387047E-02     5.18111206E-02

2 ) -------------------------------------------------------------------------------------------------------------------------------
Statistical distribution of peak voltage at node  "X0003B".   The base voltage for per unit printout is  V-base = 4.28660705E+05
  Interval             voltage         voltage  in     Frequency    Cumulative               Per cent
    number         in per unit      physical units     (density)     frequency     .GE. current value
        28           1.4000000      6.00124987E+05             0             0          100.000000
        29           1.4500000      6.21558022E+05             3             3           99.000000
        30           1.5000000      6.42991058E+05            82            85           71.666667
        31           1.5500000      6.64424093E+05           128           213           29.000000
        32           1.6000000      6.85857128E+05            69           282            6.000000
        33           1.6500000      7.07290163E+05            12           294            2.000000
        34           1.7000000      7.28723199E+05             1           295            1.666667
        35           1.7500000      7.50156234E+05             0           295            1.666667
        36           1.8000000      7.71589269E+05             2           297            1.000000
        37           1.8500000      7.93022304E+05             3           300             .000000
Summary of preceding table follows:       Grouped data     Ungrouped data
                                 Mean = 1.53100000E+00     1.53168365E+00
                             Variance = 3.12441472E-03     2.90479609E-03
                   Standard deviation = 5.58964643E-02     5.38961603E-02

3 ) -------------------------------------------------------------------------------------------------------------------------------
  SUMMARY   SUMMARY   SUMMARY   SUMMARY   SUMMARY   SUMMARY   SUMMARY   SUMMARY   SUMMARY   SUMMARY   SUMMARY   SUMMARY   SUMMARY
3 ) -------------------------------------------------------------------------------------------------------------------------------
The following is a distribution of peak overvoltages among all output nodes of the last data card that have the same base voltage.
This distribution is for the maximum of the peaks at all output nodes with  V-base = 4.28660705E+05
  Interval             voltage         voltage  in     Frequency    Cumulative               Per cent
    number         in per unit      physical units     (density)     frequency     .GE. current value
        29           1.4500000      6.21558022E+05             0             0          100.000000
        30           1.5000000      6.42991058E+05            85            85           71.666667
        31           1.5500000      6.64424093E+05           125           210           30.000000
        32           1.6000000      6.85857128E+05            66           276            8.000000
        33           1.6500000      7.07290163E+05            12           288            4.000000
        34           1.7000000      7.28723199E+05             2           290            3.333333
        35           1.7500000      7.50156234E+05             1           291            3.000000
        36           1.8000000      7.71589269E+05             5           296            1.333333
        37           1.8500000      7.93022304E+05             3           299             .333333
        38           1.9000000      8.14455340E+05             1           300             .000000
Summary of preceding table follows:       Grouped data     Ungrouped data
                                 Mean = 1.53583333E+00     1.54015056E+00
                             Variance = 4.18826644E-03     3.42272793E-03
                   Standard deviation = 6.47168173E-02     5.85040847E-02

Statistical output of branch voltage   0.4287E+06 |-1            X0003BX0003CX0003AX0003BX0003CX0003A

4 ) -------------------------------------------------------------------------------------------------------------------------------
Statistical distribution of peak voltage  for branch  "X0003A"  to  "X0003B".   Base voltage  for per unit output = 4.28660705E+05
  Interval             voltage         voltage  in     Frequency    Cumulative               Per cent
    number         in per unit      physical units     (density)     frequency     .GE. current value
        39           1.9500000      8.35888375E+05             0             0          100.000000
        40           2.0000000      8.57321410E+05           223           223           25.666667
        41           2.0500000      8.78754445E+05             0           223           25.666667
        42           2.1000000      9.00187481E+05             0           223           25.666667
        43           2.1500000      9.21620516E+05             0           223           25.666667
        44           2.2000000      9.43053551E+05             0           223           25.666667
        45           2.2500000      9.64486586E+05            36           259           13.666667
        46           2.3000000      9.85919622E+05            29           288            4.000000
        47           2.3500000      1.00735266E+06             1           289            3.666667
        48           2.4000000      1.02878569E+06             5           294            2.000000
        49           2.4500000      1.05021873E+06             5           299             .333333
        50           2.5000000      1.07165176E+06             1           300             .000000
Summary of preceding table follows:       Grouped data     Ungrouped data
                                 Mean = 2.05100000E+00     2.06429002E+00
                             Variance = 1.77665552E-02     1.57345191E-02
                   Standard deviation = 1.33291242E-01     1.25437312E-01

5 ) -------------------------------------------------------------------------------------------------------------------------------
  SUMMARY   SUMMARY   SUMMARY   SUMMARY   SUMMARY   SUMMARY   SUMMARY   SUMMARY   SUMMARY   SUMMARY   SUMMARY   SUMMARY   SUMMARY
5 ) -------------------------------------------------------------------------------------------------------------------------------
A distribution of peak values among all output branches of the last data card that have the same base value follows.  This
statistical distribution is for the maximum of the peaks at all of these output branches having base  voltage  = 4.28660705E+05
  Interval             voltage         voltage  in     Frequency    Cumulative               Per cent
    number         in per unit      physical units     (density)     frequency     .GE. current value
        47           2.3500000      1.00735266E+06             0             0          100.000000
        48           2.4000000      1.02878569E+06           294           294            2.000000
        49           2.4500000      1.05021873E+06             5           299             .333333
        50           2.5000000      1.07165176E+06             1           300             .000000
Summary of preceding table follows:       Grouped data     Ungrouped data
                                 Mean = 2.37616667E+00     2.39538619E+00
                             Variance = 7.38851728E-05     2.85027433E-05
                   Standard deviation = 8.59564848E-03     5.33879605E-03

Blank card ends statistical tabulation requests.  |BLANK STATISTICS

                                      Sample curve symbols : "A", "B", and "C"
                                      Theoretical curve symbol : "*"
                                      Common curve symbol : "X"

        Switch  "X0001B"  to  "X0002B"            Switch  "X0001A"  to  "X0002A"            Switch  "X0001C"  to  "X0002C"
1.32420000E+00   switchings per column          1.32420000E+00   switchings per column     1.32420000E+00   switchings per column
              Columns                                     Columns                                     Columns
          5   10   15   20   25   30                5   10   15   20   25   30                5   10   15   20   25   30
     +----+----+----+----+----+----+           +----+----+----+----+----+----+           +----+----+----+----+----+----+
    X                                         X                                         X
    X                                         X                                         X
    X                                         X                                         X
    *A                                        X                                         X
    |*A                                       B*                                        |*C
    |A*                                       | X                                       | X
    |   X                                     | B *                                     |   *  C
    |       X                                 |       X                                 |     C *
    |      A    *                             |           *B                            |       C   *
    |                 * A                     |                 *    B                  |                 *  C
    |                       *     A           |                       X                 |                       *    C
    |                      A    *             |                           *   B         |                    C      *
    |  5.5000E-02                 *     A     |  5.5000E-02              B  *           |  5.5000E-02                 *     C
    |                           *      A      |                         B *             |                         C *
    |                  A    *                 |                       * B               |                       *     C
    |               A *                       |                B*                       |            C    *
    |         A *                             |          B*                             |        C  *
    |       * A                               |       X                                 |       *  C
    |  A*                                     |   X                                     | C *
    | *A                                      | X                                       | X
    |X                                        |X                                        |*C
    X                                         *B                                        X
    X                                         X                                         X
    X                                         X                                         *C
    X                                         X                                         X
   Time (scale = 3.33333333E-04  Sec/line)   Time (scale = 3.33333333E-04  Sec/line)   Time  (scale = 3.33333333E-04  Sec/line)

        Switch  "X0003C"  to  "XX0009"            Switch  "X0001B"  to  "X0002B"            Switch  "X0001A"  to  "X0002A"
1.32420000E+00   switchings per column          1.32420000E+00   switchings per column     1.32420000E+00   switchings per column
              Columns                                     Columns                                     Columns
          5   10   15   20   25   30                5   10   15   20   25   30                5   10   15   20   25   30
     +----+----+----+----+----+----+           +----+----+----+----+----+----+           +----+----+----+----+----+----+
    X                                         X                                         X
    X                                         X                                         X
    X                                         X                                         X
    *A                                        X                                         * C
    |X                                        |X                                        |*C
    | *A                                      | X                                       | X
    |  A*                                     |  B*                                     |   X
    |      A*                                 |    B  *                                 |     C *
    |         A *                             |           *  B                          |          C*
    |                 * A                     |                B*                       |                 X
    |                       *     A           |                       *    B            |                       X
    |                           *    A        |                           *B            |                           * C
    |  1.0000E-02                 *A          |  7.0000E-01                 *   B       |  7.0000E-01                C*
    |                           *   A         |                           *  B          |                           *  C
    |                A      *                 |                   B   *                 |                    C  *
    |                 * A                     |            B    *                       |                 X
    |           X                             |         B *                             |           * C
    |     A *                                 |     B *                                 |       X
    A   *                                     |   *  B                                  |   *C
    A *                                       | X                                       C *
    A*                                        |*B                                       |*C
    *A                                        *B                                        X
    X                                         X                                         X
    X                                         *B                                        X
    X                                         X                                         X
   Time (scale = 3.33333333E-04  Sec/line)   Time (scale = 3.33333333E-04  Sec/line)   Time  (scale = 3.33333333E-04  Sec/line)

   Switch  "X0001C"  to  "X0002C"
     1.32420000E+00   switchings per column
              Columns
          5   10   15   20   25   30
     +----+----+----+----+----+----+
    X
    X
    *A
    X
    |X
    |A*
    | A *
    |       X
    |           *    A
    |          A      *
    |                       *    A
    |                         A *
    |  7.0000E-01                A*
    |                          A*
    |                       X
    |                 *  A
    |           *       A
    |    A  *
    |   X
    A *
    A*
    *A
    X
    *A
    X
   Time (scale = 3.33333333E-04  Sec/line)
 .... Questionable Kolmogorov-Smirnov test result = 4.79983461E-01
 .... Questionable Kolmogorov-Smirnov test result = 8.61125218E-01
 .... Questionable Kolmogorov-Smirnov test result = 6.22920778E-01
 .... Questionable Kolmogorov-Smirnov test result = 8.70941508E-02
 .... Questionable Kolmogorov-Smirnov test result = 7.08509700E-01
 .... Questionable Kolmogorov-Smirnov test result = 9.61921384E-01
 .... Questionable Kolmogorov-Smirnov test result = 7.92096056E-01

Actual List Sizes for the preceding solution follow.       11-Nov-18  11.00.00
   Size  1-10:    27    26    38     3   138    13    42  5298     0     0
   Size 11-20:     0     7 -9999 -9999 -9999     0     0     0    23  3252
   Size 21-30:    36   180 14776     0 -9999     9 -9999 -9999 -9999     0
Seconds for overlays  1-5  :     0.000     0.000     0.000  -- (CP: Wait; Real)
Seconds for overlays  6-11 :     0.000     0.000     0.000
Seconds for overlays 12-15 :     0.000     0.000     0.000
Seconds for time-step loop :     0.000     0.000     0.000
Seconds after DELTAT-loop  :     0.000     0.000     0.000
                               ---------------------------
                   Totals  :     0.000     0.000     0.000

