   ---   46   cards of disk file read into card cache cells  1   onward.
 <===> Done with  "/"-card sorting by data class.    Remember that the source file appears different from interpreted input data.
Alternative Transients Program (ATP),  F77 GNU Linux or DOS.  All rights reserved by Can/Am user group of Portland, Oregon, USA.
 Date (dd-mth-yy) and time of day (hh.mm.ss) = 11-Nov-18  11.00.00    Name of disk plot file, if any, is
Consult the 860-page ATP Rule Book of the Can/Am EMTP User Group in Portland,  Oregon, USA.  Source code date is
Total size of LABCOM tables = 16446853 INTEGER words.  31 VARDIM  List Sizes follow:  6002  10K  192K  900  420K  1200  15K
  120K  2250  3800  720  2K  72800  510  800K  800  90  254  800K  100K  3K  15K  192K  120  45K  260K  600  210K  1100  19  200K
--------------------------------------------------+--------------------------------------------------------------------------------
Descriptive interpretation of input data cards.   |  Input data card images are shown below, all 80 columns, character by character
                                                  0         1         2         3         4         5         6         7         8
                                                  012345678901234567890123456789012345678901234567890123456789012345678901234567890
--------------------------------------------------+--------------------------------------------------------------------------------
Comment card.   KOMPAR > 0.                       |C data:Caso0_ReEnergizacao_Convenc_SemControle.atp
Marker card preceding new EMTP data case.         |BEGIN NEW DATA CASE
Comment card.   KOMPAR > 0.                       |C $DUMMY, XYZ000
Misc. data.     1.000E-06   1.000E+00   0.000E+00 |   1.E-6      1.
Misc. data.  500  1  0  0  1  0  0  1  300  0     |     500       1       0       0       1       0       0       1     300
Statistics data.      1    1    0    0    1    0  |       1       1       0       0       1      -1                               0
Series R-L-C.   5.000E+00  7.500E-02  0.000E+00   |  X0001AX0007A                5.   75.                                         0
Series R-L-C.   5.000E+00  7.500E-02  0.000E+00   |  X0001BX0007B                5.   75.                                         0
Series R-L-C.   5.000E+00  7.500E-02  0.000E+00   |  X0001CX0007C                5.   75.                                         0
Series R-L-C.   2.000E+02  0.000E+00  0.000E+00   |  X0007AX0001A              200.                                               0
Series R-L-C.   2.000E+02  0.000E+00  0.000E+00   |  X0007BX0001B              200.                                               0
Series R-L-C.   2.000E+02  0.000E+00  0.000E+00   |  X0007CX0001C              200.                                               0
Series R-L-C.   1.516E+00  1.608E+00  0.000E+00   |  X0003BXX0008            1.5155 1608.                                         0
Series R-L-C.   1.516E+00  1.608E+00  0.000E+00   |  X0003AXX0008            1.5155 1608.                                         0
Series R-L-C.   1.516E+00  1.608E+00  0.000E+00   |  X0003CXX0008            1.5155 1608.                                         0
Series R-L-C.   3.272E-01  3.472E-01  0.000E+00   |  XX0008                   .3272 347.2                                         0
Series R-L-C.   3.000E+01  0.000E+00  0.000E+00   |  XX0009                     30.                                               0
Dynamic $INCLUDE uses fixed RAM cache to delay.   |$INSERT, C:\SimulacaoATP\EXT1.pch
J. Marti line, mode  1   parameters begin.        |-1X0002AX0006C                2.  0.00              -2 3
J. Marti line, mode  2   parameters begin.        |-2X0002BX0006A                2.  0.00              -2 3
J. Marti line, mode  3   parameters begin.        |-3X0002CX0006B                2.  0.00              -2 3
TR(1,1 )...  0.667-0.707-0.317                    |  0.66668704 -0.70710678 -0.31743981
TI(1,1 )...  0.000 0.000 0.004                    |  0.00000000  0.00000000  0.00360196
TR(2,1 )...  0.333 0.000 0.894                    |  0.33285412  0.00000000  0.89350256
TI(2,1 )... -0.016 0.000 0.010                    | -0.01627623  0.00000000  0.00954818
TR(3,1 )...  0.667 0.707-0.317                    |  0.66668704  0.70710678 -0.31743981
TI(3,1 )...  0.000 0.000 0.004                    |  0.00000000  0.00000000  0.00360196
Dynamic $INCLUDE uses fixed RAM cache to delay.   |$INSERT, C:\SimulacaoATP\CONV2.pch
J. Marti line, mode  1   parameters begin.        |-1X0004AX0005C                2.  0.00              -2 3
J. Marti line, mode  2   parameters begin.        |-2X0004BX0005A                2.  0.00              -2 3
J. Marti line, mode  3   parameters begin.        |-3X0004CX0005B                2.  0.00              -2 3
TR(1,1 )...  0.667-0.707-0.317                    |  0.66668704 -0.70710678 -0.31743981
TI(1,1 )...  0.000 0.000 0.004                    |  0.00000000  0.00000000  0.00360196
TR(2,1 )...  0.333 0.000 0.894                    |  0.33285412  0.00000000  0.89350256
TI(2,1 )... -0.016 0.000 0.010                    | -0.01627623  0.00000000  0.00954818
TR(3,1 )...  0.667 0.707-0.317                    |  0.66668704  0.70710678 -0.31743981
TI(3,1 )...  0.000 0.000 0.004                    |  0.00000000  0.00000000  0.00360196
Dynamic $INCLUDE uses fixed RAM cache to delay.   |$INSERT, C:\SimulacaoATP\EXT3.pch
J. Marti line, mode  1   parameters begin.        |-1X0005AX0003A                2.  0.00              -2 3
J. Marti line, mode  2   parameters begin.        |-2X0005BX0003B                2.  0.00              -2 3
J. Marti line, mode  3   parameters begin.        |-3X0005CX0003C                2.  0.00              -2 3
TR(1,1 )...  0.667-0.707-0.317                    |  0.66668704 -0.70710678 -0.31743981
TI(1,1 )...  0.000 0.000 0.004                    |  0.00000000  0.00000000  0.00360196
TR(2,1 )...  0.333 0.000 0.894                    |  0.33285412  0.00000000  0.89350256
TI(2,1 )... -0.016 0.000 0.010                    | -0.01627623  0.00000000  0.00954818
TR(3,1 )...  0.667 0.707-0.317                    |  0.66668704  0.70710678 -0.31743981
TI(3,1 )...  0.000 0.000 0.004                    |  0.00000000  0.00000000  0.00360196
Dynamic $INCLUDE uses fixed RAM cache to delay.   |$INSERT, C:\SimulacaoATP\CONV4.pch
J. Marti line, mode  1   parameters begin.        |-1X0006AX0004C                2.  0.00              -2 3
J. Marti line, mode  2   parameters begin.        |-2X0006BX0004A                2.  0.00              -2 3
J. Marti line, mode  3   parameters begin.        |-3X0006CX0004B                2.  0.00              -2 3
TR(1,1 )...  0.667-0.707-0.317                    |  0.66668704 -0.70710678 -0.31743981
TI(1,1 )...  0.000 0.000 0.004                    |  0.00000000  0.00000000  0.00360196
TR(2,1 )...  0.333 0.000 0.894                    |  0.33285412  0.00000000  0.89350256
TI(2,1 )... -0.016 0.000 0.010                    | -0.01627623  0.00000000  0.00954818
TR(3,1 )...  0.667 0.707-0.317                    |  0.66668704  0.70710678 -0.31743981
TI(3,1 )...  0.000 0.000 0.004                    |  0.00000000  0.00000000  0.00360196
Blank card ending branches.  IBR, NTOT = 23  24   |BLANK BRANCH
Switch.   5.50E-02  1.00E-03  0.00E+00  3.33E+03  |  X0001BX0002B      .055      .001               3333.STATISTICS               0
Switch.   5.50E-02  1.00E-03  0.00E+00  3.33E+03  |  X0001AX0002A      .055      .001               3333.STATISTICS               0
Switch.   5.50E-02  1.00E-03  0.00E+00  3.33E+03  |  X0001CX0002C      .055      .001               3333.STATISTICS               0
Switch.   1.00E-02  1.00E-03  0.00E+00  0.00E+00  |  X0003CXX0009       .01      .001                    STATISTICS               1
Switch.   7.00E-01  1.00E-03  0.00E+00  0.00E+00  |  X0001BX0002B        .7      .001                    STATISTICS               0
Switch.   7.00E-01  1.00E-03  0.00E+00  0.00E+00  |  X0001AX0002A        .7      .001                    STATISTICS               0
Switch.   7.00E-01  1.00E-03  0.00E+00  0.00E+00  |  X0001CX0002C        .7      .001                    STATISTICS               0
Blank card ending switches.   KSWTCH = 7.         |BLANK SWITCH
Source.   4.29E+05  6.00E+01  0.00E+00 -1.00E+00  |14X0007A  428660.705       60.                                     -1.      100.
Source.   4.29E+05  6.00E+01 -1.20E+02 -1.00E+00  |14X0007B  428660.705       60.     -120.                           -1.      100.
Source.   4.29E+05  6.00E+01 -2.40E+02 -1.00E+00  |14X0007C  428660.705       60.     -240.                           -1.      100.
Blank card ends electric sources.  KCONST = 3     |BLANK SOURCE

     Total network loss  P-loss  by summing injections =   3.381556290877E+06

Card of names for time-step loop output.          |  X0003AX0003BX0003C
Output voltage differences for pairs of A6 names  |-5X0003BX0003CX0003AX0003BX0003CX0003A
Blank card ending requests for output variables.  |BLANK OUTPUT

Column headings for the  7   EMTP output variables follow.  These are divided among the 5 possible classes as follows ....
  First  6     output variables are electric-network voltage differences (upper voltage minus lower voltage);
  Next   1     output variables are branch currents (flowing from the upper node to the lower node);
   Step      Time      X0003A     X0003B     X0003C     X0003B     X0003A     X0003C     X0003C
                                                        X0003C     X0003B     X0003A     XX0009
 ***      Phasor I(0) =  6.2644145E+02                     Switch  "X0001B"  to  "X0002B"  closed in the steady-state.
 ***      Phasor I(0) =  7.4558617E+00                     Switch  "X0001A"  to  "X0002A"  closed in the steady-state.
 ***      Phasor I(0) = -6.3876777E+02                     Switch  "X0001C"  to  "X0002C"  closed in the steady-state.
      0       0.0  452246.337 -229099.42 -215961.87 -13137.553 681345.761 -668208.21        0.0
    500     .5E-3  443351.712 -152641.65 -284635.64 131993.993  595993.36 -727987.35        0.0
   1000     .1E-2  420690.698 -71315.405 -342801.67 271486.262 492006.103 -763492.36        0.0
   1500     .0015  383137.549 13060.1334 -388921.09  401981.22 370077.416 -772058.64        0.0
   2000      .002  332658.168 96839.3181 -420866.11 517705.432  235818.85 -753524.28        0.0
   2500     .0025  270130.461  176896.58 -438579.08 615475.665 93233.8809 -708709.55        0.0
   3000      .003  198493.204 250362.694 -441237.45 691600.142  -51869.49 -639730.65        0.0
   3500     .0035  119900.955 315243.747 -427638.17 742881.922 -195342.79 -547539.13        0.0
   4000      .004  37201.7541 368884.901 -399223.45 768108.355 -331683.15 -436425.21        0.0
   4500     .0045   -47104.04 409602.807  -356713.8  766316.61 -456706.85 -309609.76        0.0
   5000      .005  -129783.02 436310.927  -301324.1 737635.032 -566093.95 -171541.08        0.0
   5500     .0055  -208082.16 447569.536  -235278.8 682848.336  -655651.7 -27196.639        0.0
   6000      .006  -279412.27 442935.964 -160950.84   603886.8 -722348.24 118461.437        0.0
   6500     .0065  -341228.39 422583.467 -80769.931 503353.399 -763811.86 260458.459        0.0
   7000      .007  -390934.11 387408.455 2355.63832 385052.817 -778342.57 393289.748        0.0
   7500     .0075   -426840.9 338543.357 85511.6783 253031.679 -765384.26 512352.582        0.0
   8000      .008  -447712.37 277530.887 165580.698 111950.189 -725243.25 613293.066        0.0
   8500     .0085  -452514.07 206534.169 239804.001 -33269.832 -659048.24 692318.075        0.0
   9000      .009   -441152.6 128061.014 305467.578 -177406.56 -569213.61 746620.177        0.0
   9500     .0095  -414030.37 44875.3137 360184.022 -315308.71 -458905.68 774214.391        0.0
  10000       .01   -371993.6 -39954.596 402022.322 -441976.92   -332039. 774015.922        0.0
 ***                                                             Close switch  "X0003C"  to  "XX0009"  after  1.00010000E-02  sec.
  10500     .0105  -420848.06 -231485.91 41339.9653 -272825.88 -189362.15 462188.024 1377.99884
  11000      .011  -365084.46  -309078.4 44334.2536 -353412.66 -56006.058 409418.716 1477.80845
  11500     .0115  -285888.16  -381003.2  46071.434 -427074.64 95115.0375 331959.599 1535.71447
  12000      .012  -207914.95 -457800.52 49581.2677 -507381.79 249885.565 257496.221 1652.70892
  12500     .0125  -113991.58  -496445.5 49614.3444 -546059.85 382453.926 163605.922 1653.81148
  13000      .013  9716.32704 -513686.45 45784.5273 -559470.98 523402.779 36068.2003 1526.15091
  13500     .0135  54996.9864 -536155.62 43222.5131 -579378.13 591152.605 -11774.473 1440.75044
  14000      .014  53995.8698 -622405.76 53438.6181 -675844.37 676401.625 -557.25166 1781.28727
  14500     .0145  191779.524 -561135.73 63898.5654  -625034.3 752915.254 -127880.96 2129.95218
  15000      .015  315236.644 -465418.93 69302.9517 -534721.89 780655.578 -245933.69 2310.09839
  15500     .0155  396208.561  -369580.6 66766.7228 -436347.32 765789.159 -329441.84 2225.55743
  16000      .016  460562.776 -276599.17 60069.4145 -336668.58 737161.945 -400493.36 2002.31382
  16500     .0165  513027.348 -175419.48 51167.2193  -226586.7 688446.831 -461860.13 1705.57398
  17000      .017  557825.899 -63772.145 37918.6741 -101690.82 621598.043 -519907.22  1263.9558
  17500     .0175  576434.867 40909.6419 22087.6803 18821.9616 535525.225 -554347.19  736.25601
  18000      .018  561286.383 146724.576 11725.5783 134998.998 414561.807  -549560.8 390.852608
  18500     .0185  526888.217 246599.018 6679.30823  239919.71 280289.198 -520208.91 222.643608
  19000      .019  473642.006 327726.433  274.21431 327452.219 145915.572 -473367.79   9.140477
  19500     .0195  405230.809  397621.13 -7624.1744 405245.304 7609.67899 -412854.98 -254.13915
  20000       .02  319531.361 456064.227 -16043.818 472108.045 -136532.87 -335575.18 -534.79394
  20500     .0205  223904.188 502837.182  -24564.38 527401.562 -278932.99 -248468.57 -818.81268
  21000      .021  124757.874  537951.18 -33646.439 571597.619 -413193.31 -158404.31  -1121.548
  21500     .0215  15044.2106 546915.051 -42379.375 589294.426 -531870.84 -57423.585 -1412.6458
  22000      .022  -102342.68 526891.664 -48176.666 575068.329 -629234.34 54166.0156 -1605.8889
  22500     .0225  -210204.74 494304.506 -50396.936 544701.441 -704509.24 159807.801 -1679.8979
  23000      .023  -302013.45  455653.22 -49471.556 505124.777 -757666.67 252541.895 -1649.0519
  23500     .0235  -378852.07  405530.81 -46412.178 451942.988 -784382.88 332439.889 -1547.0726
  24000      .024  -441642.64 340067.074 -41685.828 381752.902 -781709.71 399956.811 -1389.5276
  24500     .0245  -488108.02 260553.861 -35593.109  296146.97 -748661.88 452514.914  -1186.437
  25000      .025   -515506.1 171593.449  -28916.66 200510.109 -687099.55 486589.439 -963.88867
  25500     .0255   -525996.8 75355.2675 -22020.607 97375.8746 -601352.07 503976.192 -734.02024
  26000      .026  -520398.11 -25334.272  -14181.99 -11152.282 -495063.84  506216.12 -472.73299
  26500     .0265   -498649.2 -127639.87 -4848.5306 -122791.34 -371009.33 493800.674 -161.61769
  27000      .027   -461739.7 -228255.46 5532.72466 -233788.18 -233484.24 467272.422 184.424155
  27500     .0275  -410578.87 -322360.46 16187.6864 -338548.15 -88218.407 426766.556 539.589545
  28000      .028  -346240.09 -405003.37 26530.4184 -431533.78 58763.2708 372770.513  884.34728
  28500     .0285  -269489.37 -471575.55 36063.1098 -507638.66 202086.174 305552.481 1202.10366
  29000      .029  -181517.59 -518986.09 44165.4401 -563151.54 337468.501 225683.034 1472.18134
  29500     .0295  -86320.686 -546990.67  50390.454 -597381.13 460669.986  136711.14  1679.6818
  30000       .03  11628.8388 -555884.82 54705.4977 -610590.31 567513.655 43076.6588 1823.51659
  30500     .0305  109683.407 -544786.27 57249.1665 -602035.44  654469.68  -52434.24 1908.30555
  31000      .031  205938.309 -512813.35 58129.6385 -570942.98 718751.655 -147808.67 1937.65462
  31500     .0315  297305.917 -460942.84 57360.3246 -518303.16 758248.752 -239945.59 1912.01082
  32000      .032  379697.656 -391998.92  54940.784 -446939.71 771696.577 -324756.87 1831.35947
  32500     .0325  449364.179 -309290.72 50882.9595 -360173.68 758654.903 -398481.22 1696.09865
  33000      .033  503420.208 -216040.06 45151.7344 -261191.79 719460.269 -458268.47 1505.05781
  33500     .0335  539467.326 -115757.03 37771.6107 -153528.64 655224.353 -501695.72 1259.05369
  34000      .034  555688.107 -12162.045 28990.8441  -41152.89 567850.153 -526697.26 966.361468
  34500     .0345  550969.074 90942.4314 19244.8506 71697.5808 460026.642 -531724.22  641.49502
  35000      .035  525134.468 189825.977 8989.30182 180836.675 335308.491 -516145.17 299.643394
  35500     .0355  479131.725 281134.125 -1376.0539 282510.179   197997.6 -480507.78 -45.868463
  36000      .036  414983.263 362069.482 -11479.641 373549.123 52913.7805  -426462.9  -382.6547
  36500     .0365  335680.215 430431.002 -20973.597 451404.599 -94750.787 -356653.81 -699.11989
  37000      .037  244789.576 484387.888 -29573.294 513961.182 -239598.31 -274362.87 -985.77647
  37500     .0375  145930.322 522178.161 -37051.261 559229.422 -376247.84 -182981.58  -1235.042
  38000      .038  42705.7409 542227.577  -43191.73 585419.307 -499521.84 -85897.471 -1439.7243
  38500     .0385  -61119.867 543583.835 -47774.068 591357.903  -604703.7 13345.7998 -1592.4689
  39000      .039  -161684.37 526153.046 -50596.934 576749.981 -687837.41 111087.433 -1686.5645
  39500     .0395   -255378.8 490536.429 -51513.321  542049.75 -745915.23  203865.48 -1717.1107
  40000       .04   -339121.5 437817.722 -50450.086 488267.808 -776939.22 288671.413 -1681.6695
  40500     .0405  -410341.81 369584.249 -47422.024 417006.273 -779926.05 362919.781 -1580.7341
  41000      .041  -466899.45 288023.047 -42547.572 330570.619  -754922.5 424351.881 -1418.2524
  41500     .0415   -507120.2 195909.899 -36040.334 231950.234  -703030.1 471079.869 -1201.3445
  42000      .042  -529868.54 96492.0948 -28172.878 124664.973 -626360.64 501695.663 -939.09593
  % % % % % %   Suspended simulation;  plot data space exhausted;  SPY SPACE is required.   LIMBUF =  340000.
  % % % % % %   Suspended simulation;  plot data space exhausted;  SPY SPACE is required.   LIMBUF =  340000.
  +++  Time-sharing disabled.   Send  user-keyed interrupt to silence alarm.
   Current values.  INDBUF  INDBEG  LIMBUF  MFLUSH  NUMDCD  KCARD1  KCARD2
                    339994      50  340000    1000      37       1      41
Plot timespan now in memory (in sec) = 0.00000000E+00   4.24930000E-02
   ++++  Begin plot-data copy from memory to disk.   MFLUSH, INDBUF, N4, Tbeg,  Tend = 1001  339994       1  -1.00000E+00
1.00000E+19
  42500     .0425  -534573.67 -6686.5928  -19243.99 12557.3973 -527887.07 515329.677 -641.46634
  43000      .043  -521203.28  -109946.9 -9569.7192 -100377.18 -411256.38 511633.565 -318.99064
  43500     .0435  -490223.88 -209586.78 515.512673  -210102.3  -280637.1 490739.391 17.1837558
  44000      .044  -442571.37 -301970.71 10665.6543 -312636.37 -140600.65 453237.023 355.521812
  44500     .0445  -379630.73 -383639.23 20533.0842 -404172.31 4008.50074  400163.81  684.43614
  45000      .045   -303250.8 -451482.66 29773.8924 -481256.55 148231.854 333024.695  992.46308
  45500     .0455   -215782.7 -502947.83 38054.9441 -541002.77 287165.128 253837.642 1268.49814
  46000      .046  -120074.38 -536180.35 45069.3487  -581249.7 416105.963 165143.733 1502.31162
  46500     .0465  -19382.521 -550056.85 50555.8222 -600612.67 530674.326 69938.3429 1685.19407
  47000      .047  82763.6372 -544160.36 54313.8104 -598474.17    626924. -28449.827 1810.46035
  47500     .0475   182690.93 -518772.05 56211.7662 -574983.81 701462.976 -126479.16 1873.72554
  48000      .048  276705.026 -474877.73 56190.4407 -531068.17 751582.753 -220514.59 1873.01469
  48500     .0485  361241.566 -414137.92 54261.3871 -468399.31 775379.484 -306980.18  1808.7129
  49000      .049  433041.164 -338804.72 50500.6331 -389305.35 771845.883 -382540.53 1683.35444
  49500     .0495  489315.306 -251612.56 45041.3617 -296653.92 740927.868 -444273.94 1501.37872
  50000       .05  527879.932 -155671.24 38069.6434 -193740.89 683551.176 -489810.29 1268.98811
  50500     .0505  547250.807 -54367.127 29822.1962 -84189.323 601617.933 -517428.61 994.073207
  51000      .051  546702.891 48738.7167 20581.9277  28156.789 497964.174 -526120.96 686.064258
  51500     .0515  526295.399 150026.255 10669.5609 139356.694 376269.144 -515625.84 355.652029
  52000      .052  486863.523 245946.396 432.899746 245513.496 240917.127 -486430.62 14.4299915
  52500     .0525  429976.514 333153.013 -9765.3238 342918.336 96823.5015 -439741.84 -325.51079
  53000      .053  357857.949  408619.39 -19561.384 428180.774 -50761.441 -377419.33 -652.04614
  53500     .0535  273269.441 469730.664 -28605.607 498336.271 -196461.22 -301875.05 -953.52023
  54000      .054  179373.036 514359.091 -36576.519 550935.609 -334986.05 -215949.55 -1219.2173
  54500     .0545  79593.0604 540932.994 -43192.591 584125.585 -461339.93 -122785.65  -1439.753
  55000      .055  -22512.293 548498.871 -48221.432 596720.303 -571011.16 -25709.139 -1607.3811
  55500     .0555  -123372.19 536764.372 -51486.874 588251.246 -660136.56 71885.3121 -1716.2291
 ***                                                             Open  switch  "X0001B"  to  "X0002B"  after  5.56770000E-02  sec.
  56000      .056  -219519.42 506112.753 -52874.221 558986.974 -725632.18 166645.203  -1762.474
  56500     .0565  -307696.88 457590.533 -52333.922 509924.455 -765287.42 255362.961 -1744.4641
  57000      .057  -384948.52 392874.299  -49883.89 442758.188 -777822.82 335064.627 -1662.7963
  57500     .0575  -452993.91 324934.087 -45952.336 370886.423   -777928. 407041.579 -1531.7445
  58000      .058  -509624.96 280172.383 -41273.247 321445.631 -789797.35 468351.717 -1375.7749
  58500     .0585  -538977.88 239504.386 -34090.622 273595.007 -778482.27 504887.259 -1136.3541
 ***                                                             Open  switch  "X0001A"  to  "X0002A"  after  5.89670000E-02  sec.
  59000      .059  -549974.79 190134.594 -25647.209 215781.803 -740109.38 524327.578 -854.90697
  59500     .0595  -544805.97 130839.594 -16196.772 147036.366 -675645.56 528609.193 -539.89241
  60000       .06  -521309.46 63032.6206 -6104.8474  69137.468 -584342.08 515204.613 -203.49491
 ***                                                             Open  switch  "X0001C"  to  "X0002C"  after  6.00130000E-02  sec.
  60500     .0605  -478433.52  -11738.08 4302.64798 -16040.728 -466695.44 482736.167 143.421599
  61000      .061  -454920.87 -77982.823  15624.191 -93607.014 -376938.05 470545.065 520.806368
  61500     .0615  -446401.06 -136275.06 25262.8413  -161537.9   -310126. 471663.898 842.094708
  62000      .062  -376619.85 -154410.89 29642.4709 -184053.36 -222208.96  406262.32 988.082365
  62500     .0625  -305516.34 -180367.93 27613.6137 -207981.55  -125148.4 333129.949 920.453791
  63000      .063  -239784.33 -226198.07 23152.1096 -249350.18 -13586.264 262936.444 771.736986
  63500     .0635   -160622.3 -274320.55 17720.1109 -292040.66 113698.248 178342.411 590.670365
  64000      .064  -70739.141 -323088.27 11499.8113 -334588.08 252349.126 82238.9521 383.327045
  64500     .0645   -12629.99 -346390.74  4698.7132 -351089.46 333760.752 17328.7032 156.623773
  65000      .065  39346.8798 -368716.66 -1991.3995 -366725.26 408063.543 -41338.279 -66.379982
  65500     .0655  96049.9007 -388975.33 -10072.169 -378903.17 485025.235 -106122.07 -335.73895
  66000      .066  133430.888 -422640.42 -13386.923  -409253.5 556071.311 -146817.81 -446.23078
  66500     .0665  198652.253 -437908.87 -12539.165  -425369.7 636561.119 -211191.42 -417.97217
  67000      .067  267412.111 -448430.81 -10779.538 -437651.27 715842.917 -278191.65 -359.31793
  67500     .0675  331399.443 -457633.89 -7897.4288 -449736.47 789033.338 -339296.87 -263.24763
  68000      .068  357201.666 -440614.77 -3728.7159 -436886.06 797816.441 -360930.38 -124.29053
  68500     .0685   382157.74 -415766.36 1049.59398 -416815.95   797924.1 -381108.15 34.9864659
  69000      .069  401471.471 -390255.52 6289.22793 -396544.74 791726.987 -395182.24 209.640931
  69500     .0695  431509.145 -350716.34 10195.1514 -360911.49 782225.482 -421313.99 339.838381
  70000       .07  471947.832 -302685.83  11223.449 -313909.28 774633.662 -460724.38 374.114966
  70500     .0705   495931.68 -262418.63 11201.7929 -273620.43 758350.314 -484729.89 373.393098
  71000      .071  507513.341 -218036.66 10883.0637 -228919.72 725550.001 -496630.28 362.768789
  71500     .0715   491956.63 -149418.98 9523.85728 -158942.84  641375.61 -482432.77 317.461909
  72000      .072  470518.586 -81989.491 6759.20387 -88748.695 552508.077 -463759.38 225.306796
  72500     .0725  443136.775  -19321.72  3522.7998  -22844.52 462458.495 -439613.98  117.42666
  73000      .073  415802.043 38070.5371 -252.77039 38323.3075 377731.506 -416054.81 -8.4256796
  73500     .0735  378192.392   82774.84 -3174.7398 85949.5798 295417.552 -381367.13 -105.82466
  74000      .074  342819.709 126843.972 -4001.1511 130845.123 215975.737 -346820.86  -133.3717
  74500     .0745  294814.639 178055.551 -4029.3661 182084.917 116759.087   -298844.  -134.3122
  75000      .075  226937.959 237014.367 -3926.7578 240941.125 -10076.408 -230864.72 -130.89193
  75500     .0755   155576.89 285085.668 -3116.8888 288202.557 -129508.78 -158693.78 -103.89629
  76000      .076  88208.8928 326763.842 -1410.9419 328174.784 -238554.95 -89619.835 -47.031396
  76500     .0765  25970.9833 357093.935 812.814246  356281.12 -331122.95 -25158.169 27.0938082
  77000      .077  -30835.719 379945.479 3102.15305 376843.326  -410781.2 33937.8718 103.405102
  77500     .0775  -76212.981 397309.448  4621.5916 392687.856 -473522.43 80834.5729 154.053053
  78000      .078  -139938.26 416930.453 5609.19232 411321.261 -556868.72 145547.457 186.973077
  78500     .0785  -208899.15 435360.574 6279.64561 429080.928 -644259.72 215178.795  209.32152
  79000      .079  -267639.66 444374.808 6401.44993 437973.358 -712014.47  274041.11 213.381664
  79500     .0795  -315510.35 444426.325 5771.02825 438655.296 -759936.68 321281.381 192.367608
  80000       .08  -353670.88 429353.188 4673.73732 424679.451 -783024.07 358344.616 155.791244
  80500     .0805  -382093.09 404394.781 3273.97241 401120.809 -786487.88 385367.066 109.132414
  81000      .081  -404281.44 366316.434 2038.19566 364278.238 -770597.87 406319.636 67.9398553
  81500     .0815  -437542.43 335774.151 1366.90745 334407.243 -773316.58 438909.335 45.5635817
  82000      .082  -463285.14   305189.6 766.783293 304422.816 -768474.74 464051.922 25.5594431
  82500     .0825  -475825.79  265569.14 127.753561 265441.387 -741394.93 475953.543 4.25845203
  83000      .083   -477411.2 216601.222 -125.59723  216726.82 -694012.42 477285.605 -4.1865742
  83500     .0835  -465137.91 158983.207 214.245296 158768.962 -624121.12 465352.155 7.14150988
  84000      .084  -442079.14 97150.5481 967.807352 96182.7407 -539229.69 443046.947 32.2602451
  84500     .0845  -412447.76 32054.6306 2102.89356 29951.7371 -444502.39 414550.653 70.0964521
  % % % % % %   Suspended simulation;  plot data space exhausted;  SPY SPACE is required.   LIMBUF =  340000.
  % % % % % %   Suspended simulation;  plot data space exhausted;  SPY SPACE is required.   LIMBUF =  340000.
  +++  Time-sharing disabled.   Send  user-keyed interrupt to silence alarm.
   Current values.  INDBUF  INDBEG  LIMBUF  MFLUSH  NUMDCD  KCARD1  KCARD2
                    339994      50  340000    1001      37       1      41
Plot timespan now in memory (in sec) = 4.24919985E-02   8.49850000E-02
   ++++  Begin plot-data copy from memory to disk.   MFLUSH, INDBUF, N4, Tbeg,  Tend = 1002  339994       1  -1.00000E+00
1.00000E+19
  85000      .085   -389434.9 -18531.625 2979.26102 -21510.886 -370903.28 392414.165 99.3087008
  85500     .0855   -360378.4  -68102.04 3377.79971  -71479.84 -292276.36 363756.199 112.593324
  86000      .086  -320354.08 -119977.51 3715.69718 -123693.21 -200376.57 324069.775 123.856573
  86500     .0865  -269239.46 -172581.06 4023.91186 -176604.98 -96658.396 273263.372 134.130395
  87000      .087  -207806.16 -224624.51 4003.34565 -228627.85 16818.3452 211809.509 133.444855
  87500     .0875  -142234.25 -276172.73 3777.93819 -279950.67  133938.48 146012.186 125.931273
  88000      .088  -78985.702 -321434.84 3471.05164 -324905.89 242449.137 82456.7532 115.701721
  88500     .0885  -27581.214 -351765.31 2930.17968 -354695.49 324184.092 30511.3934 97.6726558
  89000      .089  24830.0535 -377183.96 2265.96299 -379449.92 402014.014 -22564.091 75.5320998
  89500     .0895   82977.855 -397851.07  1645.3698 -399496.44 480828.922 -81332.485   54.84566
  90000       .09  144789.045 -415202.87 1064.53466  -416267.4 559991.914 -143724.51 35.4844888
  90500     .0905  206175.297 -428719.79 604.643121 -429324.43 634895.089 -205570.65 20.1547707
  91000      .091  264995.433 -438357.03 566.015312 -438923.05 703352.467 -264429.42 18.8671771
  91500     .0915  311562.512 -435258.59 806.705289  -436065.3 746821.107 -310755.81 26.8901763
  92000      .092  343833.329 -417688.41 1060.52239 -418748.93 761521.736 -342772.81 35.3507463
  92500     .0925  373475.058 -394412.76 1179.70397 -395592.47  767887.82 -372295.35 39.3234656
  93000      .093  401539.148 -366642.86 1226.62855 -367869.49 768182.008 -400312.52 40.8876182
  93500     .0935  427081.968 -336455.45 1358.08474 -337813.53 763537.414 -425723.88 45.2694915
  94000      .094  447404.679 -301783.32 1574.12668 -303357.45    749188. -445830.55 52.4708894
  94500     .0945  462223.772  -263958.2  1838.5044  -265796.7 726181.969 -460385.27   61.28348
  95000      .095  458510.187 -214836.49 1991.24357 -216827.73 673346.676 -456518.94 66.3747856
  95500     .0955  441403.031 -157819.64  1907.1811 -159726.82 599222.672 -439495.85 63.5727033
  96000      .096  420467.572 -100870.08 1627.45559 -102497.53 521337.648 -418840.12 54.2485197
  96500     .0965  396372.917 -44979.213 1330.95544 -46310.169  441352.13 -395041.96 44.3651812
  97000      .097  370073.814 8703.13939  1079.4326 7623.70679 361370.674 -368994.38 35.9810866
  97500     .0975  339009.262  61490.318 860.015549 60630.3024 277518.944 -338149.25  28.667185
  98000      .098  302319.516 111458.354 778.966509 110679.388 190861.162 -301540.55 25.9655503
  98500     .0985  249366.507 166667.906  817.30663   165850.6 82698.6009  -248549.2 27.2435543
  99000      .099  189836.885 221662.619  808.04231 220854.577 -31825.734 -189028.84 26.9347437
  99500     .0995  131414.118 269921.068 784.729014 269136.339 -138506.95 -130629.39 26.1576338
 100000       0.1   75120.247 310966.623  829.11246 310137.511 -235846.38 -74291.134  27.637082
 100500     .1005  21275.8418 344227.777  914.09233 343313.685 -322951.94  -20361.75 30.4697443
 101000      .101   -31976.49 370676.775  1096.9165 369579.859 -402653.26 33073.4061 36.5638833
 101500     .1015  -85992.494 391117.083 1428.91849 389688.165 -477109.58 87421.4121 47.6306162
 102000      .102  -147398.17 412376.185 1730.45851 410645.727 -559774.36  149128.63 57.6819503
 102500     .1025  -206683.69 427534.525 1821.59339 425712.932 -634218.21  208505.28 60.7197796
 103000      .103  -258131.22 432469.678 1815.89634 430653.782  -690600.9 259947.119  60.529878
 103500     .1035  -301001.62 427220.899 1809.30379 425411.595 -728222.52 302810.928 60.3101264
 104000      .104  -336207.45  412855.74 1796.54183 411059.198 -749063.19 338003.993 59.8847276
 104500     .1045  -364679.17 390456.198 1837.86007 388618.338 -755135.37 366517.031 61.2620025
 105000      .105  -390267.57 363668.733 1920.48107 361748.252  -753936.3 392188.049 64.0160358
 105500     .1055  -416394.47 336783.912 1920.57673 334863.335 -753178.38  418315.05 64.0192243
 106000      .106  -434647.74 303569.105  1813.9186 301755.187 -738216.84 436461.657 60.4639533
 106500     .1065  -441219.43 262678.853  1713.6371 260965.216 -703898.28 442933.065 57.1212367
 107000      .107  -436504.36 214568.506 1671.87832 212896.627 -651072.86 438176.233 55.7292772
 107500     .1075  -422854.23 161729.307 1667.33251 160061.974 -584583.54 424521.563 55.5777504
 108000      .108  -401243.75 105005.679 1748.33884  103257.34 -506249.43 402992.092 58.2779613
 108500     .1085  -378185.84 50136.9604 1881.87169 48255.0887  -428322.8 380067.714 62.7290563
 109000      .109  -353923.16 -831.70454 1949.74533 -2781.4499 -353091.45 355872.901  64.991511
 109500     .1095  -321445.33 -52907.499  1921.4727 -54828.971 -268537.83 323366.806   64.04909
 110000       .11  -279586.11 -106315.94 1860.69114 -108176.63 -173270.17 281446.797  62.023038
 110500     .1105  -229960.99 -160531.06 1817.70891 -162348.77 -69429.927 231778.701  60.590297
 111000      .111  -175825.87 -212623.48 1788.57915 -214412.06 36797.6157 177614.445  59.619305
 111500     .1115   -118583.6 -261974.97 1815.38804 -263790.36 143391.371 120398.992 60.5129347
 112000      .112  -65758.893 -302385.35 1841.77087 -304227.12 236626.456 67600.6638 61.3923625
 112500     .1125  -15320.941  -334336.2 1746.75966 -336082.96  319015.26 17067.7007 58.2253218
 113000      .113   38120.363 -362337.16 1553.21278 -363890.37 400457.523  -36567.15 51.7737593
 113500     .1135    94202.44 -386516.55 1369.21963 -387885.77 480718.992  -92833.22 45.6406545
 114000      .114  151025.784 -406264.86 1236.96376 -407501.82 557290.639 -149788.82 41.2321255
 114500     .1145  205345.426 -419516.71 1151.35259 -420668.06 624862.133 -204194.07 38.3784197
 115000      .115  255297.863 -425901.35 1137.92655 -427039.28 681199.212 -254159.94 37.9308851
 115500     .1155  294421.378  -420447.6 1129.78966 -421577.39 714868.982 -293291.59 37.6596552
 116000      .116   326514.26 -406002.98 1030.20547 -407033.18 732517.236 -325484.05 34.3401823
 116500     .1165   356104.16 -386671.09 889.653955 -387560.75 742775.254 -355214.51 29.6551318
 117000      .117  382771.508 -362983.65 792.021718 -363775.67 745755.157 -381979.49 26.4007239
 117500     .1175  404687.827 -334635.71  734.43747 -335370.14 739323.534 -403953.39  24.481249
 118000      .118  419587.171  -301103.7 725.397332 -301829.09 720690.868 -418861.77 24.1799111
 118500     .1185  425417.227 -261840.05 775.858698 -262615.91 687257.273 -424641.37 25.8619566
 119000      .119  418369.966 -213878.78 805.373241 -214684.15 632248.741 -417564.59 26.8457747
 119500     .1195  403672.779 -161641.32 739.768443 -162381.09 565314.097 -402933.01 24.6589481
 120000       .12  385354.008 -108740.05 636.483023 -109376.54 494094.061 -384717.52 21.2161008
 120500     .1205  363437.146 -56170.044 567.413828 -56737.458  419607.19 -362869.73 18.9137943
 121000      .121  336458.596 -3660.8042 534.414657 -4195.2188   340119.4 -335924.18 17.8138219
 121500     .1215  303746.779 48359.2975  563.94602 47795.3515 255387.481 -303182.83 18.7982007
 122000      .122  263073.047 101101.073 643.657955 100457.415 161971.974 -262429.39 21.4552652
 122500     .1225  213517.526 155709.957 687.371372 155022.586 57807.5692 -212830.15 22.9123791
 123000      .123   161089.81 207348.702  656.77218  206691.93 -46258.892 -160433.04  21.892406
 123500     .1235    109202.7 253400.791 618.053071 252782.738 -144198.09 -108584.65  20.601769
 124000      .124  58187.3108 293135.657 627.859156 292507.798 -234948.35 -57559.452 20.9286385
 124500     .1245  6881.98922  327390.83 678.481745 326712.348 -320508.84 -6203.5075 22.6160582
 125000      .125  -44443.896 355686.447 785.360781 354901.087 -400130.34 45229.2564 26.1786927
 125500     .1255  -98420.702 380215.585 920.244423 379295.341 -478636.29 99340.9467 30.6748141
 126000      .126  -153846.72 401086.144 1000.87169 400085.272 -554932.86 154847.589 33.3623896
 126500     .1265  -204912.12 414222.327 1014.28795 413208.039 -619134.45 205926.411 33.8095983
 127000      .127   -249301.4 418380.134 1023.35312 417356.781 -667681.53 250324.749 34.1117708
  % % % % % %   Suspended simulation;  plot data space exhausted;  SPY SPACE is required.   LIMBUF =  340000.
  % % % % % %   Suspended simulation;  plot data space exhausted;  SPY SPACE is required.   LIMBUF =  340000.
  +++  Time-sharing disabled.   Send  user-keyed interrupt to silence alarm.
   Current values.  INDBUF  INDBEG  LIMBUF  MFLUSH  NUMDCD  KCARD1  KCARD2
                    339994      50  340000    1002      37       1      41
Plot timespan now in memory (in sec) = 8.49839970E-02   1.27477000E-01
   ++++  Begin plot-data copy from memory to disk.   MFLUSH, INDBUF, N4, Tbeg,  Tend = 1003  339994       1  -1.00000E+00
1.00000E+19
 127500     .1275  -287114.75 413760.988 1063.53774  412697.45 -700875.74 288178.287 35.4512581
 128000      .128  -319733.72 401951.156 1126.40786 400824.748 -721684.88 320860.131 37.5469287
 128500     .1285  -347124.52 383212.357 1227.06674 381985.291 -730336.88 348351.588 40.9022245
 129000      .129  -372300.81 360689.261 1333.18607 359356.075 -732990.07 373633.994 44.4395355
 129500     .1295   -393129.1 334049.928 1370.02445 332679.904 -727179.03 394499.128 45.6674817
 130000       .13  -405028.27 300472.871 1346.32153  299126.55 -705501.14 406374.591 44.8773845
 130500     .1305  -407168.56 259963.292 1327.06651 258636.225 -667131.85 408495.624 44.2355503
 131000      .131  -400687.96 213794.343 1334.65939 212459.684 -614482.31 402022.623 44.4886464
 131500     .1315  -387446.84  163991.93 1365.95732 162625.973 -551438.77 388812.794 45.5319107
 132000      .132  -368456.99 111767.674  1428.0147 110339.659 -480224.66 369885.003   47.60049
 132500     .1325  -346858.31 60513.7494  1477.5706 59036.1788 -407372.06 348335.881 49.2523535
 133000      .133  -320438.39 9443.67487 1454.04034 7989.63454 -329882.07 321892.433 48.4680113
 133500     .1335  -286232.42 -43218.015 1384.76505  -44602.78 -243014.41 287617.187 46.1588349
 134000      .134  -244729.41 -96842.538 1329.85835 -98172.397 -147886.87  246059.27 44.3286116
 134500     .1345  -198101.91 -149612.45 1296.41909 -150908.87  -48489.46 199398.332 43.2139696
 135000      .135   -148450.1 -199807.85 1284.16235 -201092.01 51357.7503  149734.26 42.8054117
 135500     .1355  -97875.948 -245764.32 1291.44117 -247055.76 147888.373 99167.3887 43.0480391
 136000      .136    -49031.6 -284871.69 1270.66391 -286142.35 235840.085 50302.2642 42.3554635
 136500     .1365  328.805528  -318682.5 1182.90986 -319865.41 319011.303 854.104331 39.4303286
 137000      .137   51933.658 -348583.11 1067.00093 -349650.11 400516.769 -50866.657 35.5666975
 137500     .1375  104620.129 -374128.77 974.184508 -375102.95 478748.896 -103645.94 32.4728169
 138000      .138   155826.58 -393760.52 904.605332 -394665.13   549587.1 -154921.97 30.1535111
 138500     .1385  203846.416 -406701.21 862.764376 -407563.97 610547.625 -202983.65 28.7588125
 139000      .139  246197.709 -411498.65 840.268244 -412338.92 657696.362 -245357.44 28.0089415
 139500     .1395  281498.186 -407058.21 787.317371 -407845.52 688556.392 -280710.87 26.2439124
 140000       .14  312407.251 -395888.52 682.966539 -396571.48 708295.767 -311724.28 22.7655513
 140500     .1405  340160.093 -379537.23  571.83184 -380109.07 719697.328 -339588.26 19.0610613
 141000      .141  363710.435 -358144.25 494.721802 -358638.97 721854.682 -363215.71 16.4907267
 141500     .1415  380975.068 -330868.61 447.404885 -331316.01 711843.677 -380527.66 14.9134962
 142000      .142  391151.333 -297947.01 432.674131 -298379.68 689098.342 -390718.66  14.422471
 142500     .1425  392232.492 -258467.89  433.80985  -258901.7 650700.384 -391798.68 14.4603283
 143000      .143   384544.97 -212900.75 401.767051 -213302.52 597445.724  -384143.2  13.392235
 143500     .1435  371370.201  -164391.4 331.396373  -164722.8 535761.604  -371038.8 11.0465458
 144000      .144  354009.901 -114632.84  269.98601 -114902.82 468642.737 -353739.91 8.99953367
 144500     .1445  331936.886 -64090.351 245.695983 -64336.047 396027.238 -331691.19 8.18986608
 145000      .145   303992.64 -12510.395 251.840997 -12762.236 316503.034  -303740.8 8.39469989
 145500     .1455  270222.874 39427.9896 288.592055 39139.3976 230794.884 -269934.28 9.61973517
 146000      .146  229507.046 92321.9232 333.527735 91988.3955 137185.123 -229173.52 11.1175912
 146500     .1465  183666.621 144779.388 343.222714 144436.165 38887.2327  -183323.4 11.4407571
 147000      .147  136281.518 193805.761 324.993671 193480.768 -57524.244 -135956.52 10.8331224
 147500     .1475  88688.0763 238071.206 324.363475 237746.842 -149383.13 -88363.713 10.8121158
 148000      .148  40633.5859 277449.763 357.119869 277092.643 -236816.18 -40276.466 11.9039956
 148500     .1485   -8326.987 312166.619 416.698759 311749.921 -320493.61 8743.68571 13.8899586
 149000      .149  -57910.976 341960.682 499.784822 341460.897 -399871.66 58410.7613 16.6594941
 149500     .1495   -108580.6 367600.309 578.116855 367022.192 -476180.91 109158.714 19.2705618
 150000       .15  -157817.28 387627.925  616.26774 387011.658 -545445.21 158433.549  20.542258
 150500     .1505  -202499.27 399977.419 630.939569  399346.48 -602476.69 203130.206  21.031319
 151000      .151  -241772.89 404220.179 663.162234 403557.017 -645993.07  242436.05 22.1054078
 151500     .1515  -276229.47  401112.07 719.148159 400392.922 -677341.54 276948.616 23.9716053
 152000      .152  -306221.86 391338.975 793.146121 390545.829 -697560.84 307015.008  26.438204
 152500     .1525  -331999.45 375589.214 878.234696 374710.979 -707588.67 332877.688 29.2744899
 153000      .153  -353908.67 355038.742 943.102247 354095.639 -708947.42 354851.777 31.4367416
 153500     .1535  -369626.35 328675.329 963.677718 327711.651 -698301.68 370590.024 32.1225906
 154000      .154  -377173.63 295626.858 964.446181 294662.412 -672800.49 378138.079  32.148206
 154500     .1545  -376676.82 256459.572 980.354449 255479.218 -633136.39 377657.171 32.6784816
 155000      .155  -369504.39 212775.008 1011.39639 211763.612  -582279.4 370515.788 33.7132131
 155500     .1555  -356429.39 165716.782 1052.92279 164663.859 -522146.18 357482.316 35.0974263
 156000      .156  -338595.79 116770.248 1095.59435 115674.654 -455366.04 339691.384 36.5198117
 156500     .1565  -316530.87  67230.546 1108.35101  66122.195 -383761.42 317639.222 36.9450338
 157000      .157  -288563.46 16429.2575 1078.68025 15350.5772 -304992.72 289642.143 35.9560082
 157500     .1575  -253998.45 -35720.301  1036.1846 -36756.485 -218278.15 255034.635 34.5394868
 158000      .158  -213955.49 -88130.633 1008.61841 -89139.251 -125824.86 214964.109 33.6206136
 158500     .1585  -170441.98 -138983.01 992.723586 -139975.74 -31458.961 171434.699 33.0907862
 159000      .159  -124651.67 -187160.41 984.617446 -188145.03 62508.7431 125636.289 32.8205815
 159500     .1595  -78304.789 -231082.85 972.726521 -232055.57 152778.059 79277.5157 32.4242174
 160000       .16  -31882.983 -269991.09 928.668686 -270919.76 238108.103 32811.6521 30.9556229
 160500     .1605   15798.538 -304719.56 850.526801 -305570.09   320518.1 -14948.011 28.3508934
 161000      .161  64643.6677 -335317.39 770.776223 -336088.17 399961.061 -63872.892 25.6925408
 161500     .1615  113079.482 -360879.95 709.737825 -361589.69 473959.435 -112369.74 23.6579275
 162000      .162  159120.888 -380152.65 662.708028 -380815.36 539273.539 -158458.18 22.0902676
 162500     .1625  201623.028  -392605.2 625.779676 -393230.98 594228.232 -200997.25 20.8593225
 163000      .163  239058.899 -397296.93  585.03157 -397881.96  636355.83 -238473.87 19.5010523
 163500     .1635  271549.128 -394531.89 516.717903 -395048.61 666081.017 -271032.41 17.2239301
 164000      .164  300314.073 -385710.27 427.622104 -386137.89 686024.343 -299886.45 14.2540701
 164500     .1645  325216.993  -371363.7 349.895755 -371713.59  696580.69  -324867.1 11.6631918
 165000      .165  344943.216 -351190.99 296.128097 -351487.11 696134.203 -344647.09 9.87093658
 165500     .1655  358241.619 -324881.56 260.659569 -325142.22 683123.181 -357980.96 8.68865229
 166000      .166  364531.898 -292650.81 238.569927 -292889.38 657182.708 -364293.33 7.95233089
 166500     .1665  363153.485  -254444.6 213.405384 -254658.01 617598.086 -362940.08 7.11351282
 167000      .167  355220.597 -211596.02 166.729908 -211762.75 566816.621 -355053.87 5.55766359
 167500     .1675  342349.076 -165965.12 111.408488 -166076.52 508314.192 -342237.67 3.71361628
 168000      .168  324815.296 -118489.85 76.2889294 -118566.14 443305.151 -324739.01 2.54296431
 168500     .1685    301937.4 -69316.086 66.9518565 -69383.038 371253.486 -301870.45 2.23172855
 169000      .169  273443.957 -18801.219  76.907233 -18878.127 292245.177 -273367.05 2.56357443
 169500     .1695  239430.489 32495.5197 99.4973078 32396.0224  206934.97 -239330.99 3.31657693
  % % % % % %   Suspended simulation;  plot data space exhausted;  SPY SPACE is required.   LIMBUF =  340000.
  % % % % % %   Suspended simulation;  plot data space exhausted;  SPY SPACE is required.   LIMBUF =  340000.
  +++  Time-sharing disabled.   Send  user-keyed interrupt to silence alarm.
   Current values.  INDBUF  INDBEG  LIMBUF  MFLUSH  NUMDCD  KCARD1  KCARD2
                    339994      50  340000    1003      37       1      41
Plot timespan now in memory (in sec) = 1.27476007E-01   1.69969000E-01
   ++++  Begin plot-data copy from memory to disk.   MFLUSH, INDBUF, N4, Tbeg,  Tend = 1004  339994       1  -1.00000E+00
1.00000E+19
 170000       .17  200219.987  84109.217  116.29227 83992.9248 116110.769 -200103.69   3.876409
 170500     .1705  157759.882 134293.491 114.452702 134179.039 23466.3904 -157645.43 3.81509008
 171000      .171   113910.72 181314.976 110.871795 181204.104 -67404.256 -113799.85 3.69572652
 171500     .1715  69221.2804   224406.4 129.281145 224277.118 -155185.12 -69091.999  4.3093715
 172000      .172  23447.1948 263548.793  169.67003 263379.123  -240101.6 -23277.525 5.65566766
 172500     .1725  -23090.502 298409.142 224.808803 298184.333 -321499.64 23315.3106 7.49362675
 173000      .173  -70022.171  328754.91 286.165241 328468.744 -398777.08 70308.3367 9.53884135
 173500     .1735  -116511.58 354245.128 334.838479 353910.289 -470756.71 116846.416 11.1612826
 174000      .174   -160443.6 373503.466 363.747598 373139.719 -533947.07 160807.348 12.1249199
 174500     .1745  -200284.31 385565.122  392.22934 385172.892 -585849.43 200676.536 13.0743113
 175000      .175  -235776.93  390428.53 438.243102 389990.287 -626205.46 236215.171 14.6081034
 175500     .1755  -267278.29 388703.807 498.098773 388205.708  -655982.1 267776.389 16.6032924
 176000      .176  -294584.28 380652.031 564.444748 380087.586 -675236.31 295148.728 18.8148249
 176500     .1765  -317644.97 366790.566 627.430963 366163.135 -684435.54   318272.4 20.9143654
 177000      .177  -335767.66 347290.228 669.704099 346620.524 -683057.89 336437.367   22.32347
 177500     .1775  -347396.68 321556.869 690.089535  320866.78 -668953.55 348086.774 23.0029845
 178000      .178  -351871.86 289603.105 709.270517 288893.834 -641474.96 352581.127 23.6423506
 178500     .1785  -349720.07 252316.733  739.93897 251576.794  -602036.8  350460.01 24.6646323
 179000      .179  -341827.69 210939.903 776.727822 210163.175 -552767.59 342604.414 25.8909274
 179500     .1795  -328597.94 166352.282 812.899497 165539.382 -494950.23 329410.843 27.0966499
 180000       .18  -310601.69 119658.059 838.051969 118820.007 -430259.74 311439.738 27.9350656
 180500     .1805  -287623.12 71366.8124 838.162577 70528.6498 -358989.93 288461.278 27.9387526
 181000      .181   -258960.1 21456.1635 817.796113 20638.3673 -280416.27 259777.901 27.2598704
 181500     .1815  -224909.89 -29471.536 797.853801 -30269.389 -195438.35 225707.742 26.5951267
 182000      .182  -186774.28   -80104.4 786.585493 -80890.985 -106669.88  187560.87 26.2195164
 182500     .1825  -145889.51 -129096.38 778.250215 -129874.63 -16793.124 146667.756 25.9416738
 183000      .183   -103187.9 -175459.89 766.995949 -176226.89  72271.996 103954.895 25.5665316
 183500     .1835  -59611.826 -218145.31 742.480817 -218887.79 158533.486 60354.3069 24.7493606
 184000      .184   -15207.03 -256884.72 694.943745 -257579.66 241677.686 15901.9741 23.1647915
 184500     .1845   30174.733  -291740.2 633.795924 -292373.99 321914.932 -29540.937 21.1265308
 185000      .185  75738.4219 -322212.74 578.717334 -322791.46  397951.16 -75159.705 19.2905778
 185500     .1855  119941.803 -347281.77 534.179531 -347815.95 467223.571 -119407.62 17.8059844
 186000      .186  161528.671 -366165.45 494.534289 -366659.98 527694.117 -161034.14 16.4844763
 186500     .1865  199584.375 -378389.49  454.46305 -378843.96 577973.869 -199129.91 15.1487683
 187000      .187  233416.666  -383602.6 403.936831 -384006.54 617019.268 -233012.73  13.464561
 187500     .1875   263258.75 -382283.28 337.360051 -382620.64 645542.032 -262921.39  11.245335
 188000      .188  289308.369 -375030.91 267.400233 -375298.31 664339.279 -289040.97  8.9133411
 188500     .1885  310934.235 -361926.03 210.954439 -362136.99 672860.267 -310723.28 7.03181462
 189000      .189  327026.344 -342676.41 169.069767 -342845.48 669702.752 -326857.27 5.63565891
 189500     .1895  336974.107 -317362.94 135.985073 -317498.92 654337.046 -336838.12 4.53283575
 190000       .19   340439.46 -286257.65 106.118401 -286363.76 626697.106 -340333.34 3.53728005
 190500     .1905  337498.453 -249875.83 69.7735266  -249945.6 587374.279 -337428.68 2.32578422
 191000      .191  329048.517 -209442.94 24.8202891 -209467.76 538491.457  -329023.7 .827342971
 191500     .1915  315740.557 -166072.44 -14.661691 -166057.78 481813.001 -315755.22 -.48872305
 192000      .192  297479.354 -120335.44 -35.789619 -120299.65 417814.798 -297515.14 -1.1929873
 192500     .1925  273906.734 -72519.948 -40.633165 -72479.314 346426.682 -273947.37 -1.3544388
 193000      .193  245209.667 -23268.438 -35.368914 -23233.069 268478.105 -245245.04 -1.1789638
 193500     .1935  211752.343  26738.994 -26.448029  26765.442 185013.349 -211778.79 -.88160096
 194000      .194  174395.404  76541.592 -23.026626 76564.6186  97853.812 -174418.43 -.76755421
 194500     .1945  134581.486 124706.724 -24.446654 124731.171 9874.76171 -134605.93 -.81488848
 195000      .195  93298.0817  170136.49 -16.732149 170153.222 -76838.408 -93314.814 -.55773829
 195500     .1955  50814.1258 212329.554 8.58062469 212320.973 -161515.43 -50805.545 .286020823
 196000      .196  7280.06159 251002.866 46.9676376 250955.899  -243722.8  -7233.094 1.56558792
 196500     .1965  -36707.637 285624.836 91.9093549 285532.927 -322332.47 36799.5468 3.06364516
 197000      .197  -80476.903 315745.867 136.116353 315609.751 -396222.77 80613.0192 4.53721176
 197500     .1975  -122878.44 340636.607 171.579614 340465.028 -463515.04 123050.015 5.71932047
 198000      .198   -162489.7  359350.56 201.445429 359149.115 -521840.26  162691.15 6.71484764
 198500     .1985  -198517.11 371424.474 238.740259 371185.734 -569941.58  198755.85 7.95800863
 199000      .199  -230866.75 376998.984 288.033235 376710.951 -607865.73  231154.78 9.60110785
 199500     .1995   -259457.8 376337.765 343.425321  375994.34 -635795.57 259801.227 11.4475107
 200000       0.2  -283917.09 369553.197 398.549497 369154.648 -653470.29 284315.638 13.2849832
 200500     .2005  -303850.97 356857.696 445.960447 356411.736 -660708.66 304296.928 14.8653482
 201000      .201  -318448.42 338166.782   479.6912 337687.091 -656615.21 318928.116 15.9897067
 201500     .2015  -326902.85 313357.915 505.373886 312852.541 -640260.76 327408.222 16.8457962
 202000      .202  -329121.36 282822.462 534.809073 282287.653 -611943.83 329656.173 17.8269691
 202500     .2025  -325629.96 247461.501 569.748661 246891.752 -573091.46 326199.706  18.991622
 203000      .203  -316854.61   208148.9 604.107628 207544.793 -525003.51 317458.714 20.1369209
 203500     .2035  -303039.92 165636.325 632.273773 165004.051 -468676.24  303672.19 21.0757924
 204000      .204  -284375.84 120679.143 647.553394  120031.59 -405054.99 285023.398 21.5851131
 204500     .2045   -260677.7 73685.8384 646.760212 73039.0782 -334363.54 261324.462 21.5586737
 205000      .205  -231938.34 25103.1466 637.870394 24465.2762 -257041.49 232576.215 21.2623465
 205500     .2055  -198833.26 -24179.759 631.329088 -24811.088  -174653.5 199464.589 21.0443029
 206000      .206  -162480.91 -72946.334 627.090356 -73573.425 -89534.572 163107.997 20.9030119
 206500     .2065  -123764.12 -120178.38 619.694571 -120798.07 -3585.7385 124383.811 20.6564857
 207000      .207  -83409.506 -165008.18 604.542146 -165612.72  81598.672  84014.048 20.1514049
 207500     .2075  -41974.601 -206718.13 576.269735  -207294.4 164743.534 42550.8708 19.2089912
 208000      .208  341.477373 -244979.79 534.623089 -245514.41 245321.263 193.145716 17.8207696
 208500     .2085  43097.1978  -279407.8 489.269595 -279897.07 322505.002 -42607.928 16.3089865
 209000      .209  85285.9635 -309278.88 448.958498 -309727.83 394564.839 -84837.005 14.9652833
 209500     .2095  125694.321 -333739.99 412.374945 -334152.36  459434.31 -125281.95 13.7458315
 210000       .21  163467.832 -352255.87 374.831458  -352630.7 515723.704   -163093. 12.4943819
 210500     .2105  197940.245 -364467.85 332.469485 -364800.32 562408.096 -197607.78 11.0823162
 211000      .211  228744.714 -370287.77 281.264187 -370569.03 599032.479 -228463.45 9.37547289
 211500     .2115  255842.984 -369989.89  223.37082 -370213.26 625832.872 -255619.61 7.44569402
 212000      .212   278940.19 -363758.06 168.983252 -363927.05 642698.253 -278771.21 5.63277508
  % % % % % %   Suspended simulation;  plot data space exhausted;  SPY SPACE is required.   LIMBUF =  340000.
  % % % % % %   Suspended simulation;  plot data space exhausted;  SPY SPACE is required.   LIMBUF =  340000.
  +++  Time-sharing disabled.   Send  user-keyed interrupt to silence alarm.
   Current values.  INDBUF  INDBEG  LIMBUF  MFLUSH  NUMDCD  KCARD1  KCARD2
                    339994      50  340000    1004      37       1      41
Plot timespan now in memory (in sec) = 1.69967994E-01   2.12461000E-01
   ++++  Begin plot-data copy from memory to disk.   MFLUSH, INDBUF, N4, Tbeg,  Tend = 1005  339994       1  -1.00000E+00
1.00000E+19
 212500     .2125  297310.226 -351500.96 124.583625 -351625.55  648811.19 -297185.64 4.15278751
 213000      .213  310236.494 -333131.58 87.6318434 -333219.21  643368.07 -310148.86 2.92106145
 213500     .2135  317414.763 -308891.16 53.8292746 -308944.99  626305.92 -317360.93 1.79430915
 214000      .214   318752.56 -279169.56 19.4783266 -279189.04 597922.117 -318733.08 .649277553
 214500     .2145  314524.072 -244650.43 -18.478029 -244631.95 559174.504 -314542.55 -.61593428
 215000      .215  305240.084 -206256.92 -56.361219 -206200.56 511497.007 -305296.45 -1.8787073
 215500     .2155  291123.301 -164733.78 -84.728234 -164649.05 455857.077 -291208.03 -2.8242745
 216000      .216  272053.243 -120545.06 -99.836996 -120445.22 392598.302 -272153.08 -3.3278999
 216500     .2165  248047.244 -74200.435 -105.51397 -74094.921 322247.678 -248152.76 -3.5171322
 217000      .217  219486.727 -26443.744 -106.12739 -26337.616 245930.471 -219592.85 -3.5375796
 217500     .2175  186935.428 21913.1764 -105.63907 22018.8155 165022.251 -187041.07 -3.5213022
 218000      .218  151288.757 69833.7323 -106.43842 69940.1707 81455.0246  -151395.2 -3.5479473
 218500     .2185  113515.723 116224.944 -104.07671 116329.021  -2709.221  -113619.8 -3.4692238
 219000      .219  74224.0549 160290.216  -90.72653 160380.942 -86066.161 -74314.781 -3.0242177
 219500     .2195  33709.9003 201549.157 -65.369733 201614.527 -167839.26  -33775.27 -2.1789911
 220000       .22   -7562.826 239490.246 -32.870067 239523.116 -247053.07 7529.95594 -1.0956689
 220500     .2205  -48889.606 273499.531 2.23665241 273497.294 -322389.14 48891.8427  .07455508
 221000      .221  -89454.814 302973.713 35.8085509 302937.905 -392428.53 89490.6221 1.19361836
 221500     .2215  -128221.88 327182.391 66.2245949 327116.167 -455404.27 128288.106  2.2074865
 222000      .222  -164267.75 345502.499  98.394802 345404.105 -509770.25 164366.141 3.27982673
 222500     .2225  -197110.95 357688.809 138.345762 357550.464 -554799.76 197249.293  4.6115254
 223000      .223   -226562.8 363807.432  184.99376 363622.438 -590370.23 226747.794 6.16645866
 223500     .2235  -252286.37  363895.37 233.109781  363662.26 -616181.74 252519.476 7.77032603
 224000      .224  -273830.96 357972.444 278.354205  357694.09 -631803.41 274109.316 9.27847351
 224500     .2245  -290693.75 346083.306 316.973736 345766.332 -636777.05 291010.721 10.5657912
 225000      .225  -302267.95 328200.887 348.568967 327852.318 -630468.84 302616.521 11.6189656
 225500     .2255  -308198.61 304481.883 378.568771 304103.314 -612680.49  308577.18  12.618959
 226000      .226   -308598.5 275452.159 411.534377 275040.624 -584050.66 309010.037 13.7178126
 226500     .2265  -303808.88  241858.91 445.236996 241413.673 -545667.79 304254.115 14.8412332
 227000      .227  -294026.54  204367.32 474.901842 203892.418 -498393.86 294501.445 15.8300614
 227500     .2275  -279396.06 163621.304 496.927197 163124.377 -443017.36 279892.984 16.5642399
 228000      .228  -260007.98 120221.524 508.620395 119712.904  -380229.5 260516.598 16.9540132
 228500     .2285  -235912.89 74686.0476 511.231395 74174.8162 -310598.94 236424.122 17.0410465
 229000      .229  -207455.97  27697.334 510.760155 27186.5738  -235153.3 207966.729 17.0253385
 229500     .2295  -175387.02 -19787.929 510.713851 -20298.643 -155599.09 175897.734  17.023795
 230000       .23  -140552.41 -66748.042  508.52874 -67256.571 -73804.367 141060.938  16.950958
 230500     .2305  -103612.56 -112333.98 500.407167 -112834.39 8721.42162 104112.965 16.6802389
 231000      .231  -65153.549  -155785.7 483.780362 -156269.48 90632.1515 65637.3296 16.1260121
 231500     .2315  -25644.827 -196491.73 457.341881 -196949.07 170846.901 26102.1693 15.2447294
 232000      .232  14480.1686 -233962.52 423.988329 -234386.51 248442.688  -14056.18 14.1329443
 232500     .2325  54533.1544  -267604.8 389.988136 -267994.79 322137.956 -54143.166 12.9996045
 233000      .233  93551.4598 -296672.05 357.896881 -297029.95 390223.514 -93193.563  11.929896
 233500     .2335  130639.551 -320504.24 325.133923 -320829.37  451143.79 -130314.42 10.8377974
 234000      .234  165148.633 -338680.83 288.843472 -338969.67 503829.458 -164859.79 9.62811573
 234500     .2345  196567.843 -350931.43    247.314 -351178.74 547499.269 -196320.53 8.24380001
 235000      .235  224574.755 -357200.46 200.418423 -357400.88 581775.218 -224374.34  6.6806141
 235500     .2355  248894.063 -357556.83 152.155742 -357708.99 606450.894 -248741.91 5.07185805
 236000      .236  269056.806 -351993.55 108.368773 -352101.92 621050.361 -268948.44 3.61229244
 236500     .2365  284452.675 -340426.06 70.4098296 -340496.47 624878.732 -284382.27 2.34699432
 237000      .237   294664.66 -322931.29 35.5333023 -322966.82 617595.951 -294629.13 1.18444341
 237500     .2375  299546.991 -299814.14 1.35360914 -299815.49  599361.13 -299545.64 .045120305
 238000      .238  299129.628 -271525.78 -33.482328  -271492.3  570655.41 -299163.11 -1.1160776
 238500     .2385  293647.676 -238708.67 -68.459406 -238640.21 532356.348 -293716.14 -2.2819802
 239000      .239  283354.138 -202058.16 -99.292132 -201958.87   485412.3 -283453.43 -3.3097377
 239500     .2395  268329.409 -162152.09 -121.33655 -162030.76 430481.502 -268450.75 -4.0445517
 240000       .24  248589.762 -119492.04 -134.75158 -119357.29 368081.806 -248724.51 -4.4917194
 240500     .2405  224382.114  -74719.97  -142.7114 -74577.259 299102.084 -224524.83 -4.7570468
 241000      .241  196177.281 -28614.667 -147.62744  -28467.04 224791.948 -196324.91 -4.9209148
 241500     .2415  164593.618 17969.6369  -150.9187 18120.5556 146623.981 -164744.54 -5.0306235
 242000      .242  130389.426  64087.837 -151.87612 64239.7131 66301.5892  -130541.3 -5.0625373
 242500     .2425  94253.3665 108864.554 -146.56878 109011.123 -14611.188 -94399.935  -4.885626
 243000      .243  56666.6658 151625.502 -131.97891 151757.481 -94958.836 -56798.645 -4.3992971
 243500     .2435   18057.599 191812.382  -109.7593 191922.142 -173754.78 -18167.358 -3.6586434
 244000      .244  -20961.567 228798.936  -83.50254 228882.439  -249760.5 20878.0645  -2.783418
 244500     .2445  -59656.619 261935.852 -55.776076 261991.628 -321592.47 59600.8428 -1.8592025
 245000      .245  -97223.985 290582.576 -28.082175 290610.659 -387806.56 97195.9026 -.93607249
 245500     .2455  -132835.39 314118.621 .431006748  314118.19 -446954.01 132835.821 .014366892
 246000      .246  -165842.18 332099.382 33.1647436 332066.217 -497941.56 165875.346 1.10549145
 246500     .2465  -195854.33 344338.552 71.6437327 344266.909 -540192.88 195925.974 2.38812442
 247000      .247  -222547.87 350780.143 113.213031  350666.93 -573328.01 222661.084  3.7737677
 247500     .2475  -245489.23 351350.338 154.270971 351196.067 -596839.57 245643.501 5.14236571
 248000      .248  -264219.91 346015.353 192.411919 345822.941 -610235.26 264412.319 6.41373063
 248500     .2485  -278283.85 334782.733 226.450585 334556.283 -613066.58 278510.301 7.54835283
 249000      .249   -287299.1 317732.369 257.694659 317474.674 -605031.47 287556.798 8.58982197
 249500     .2495  -291133.64 295149.291  289.23973 294860.052 -586282.94 291422.884 9.64132434
 250000       .25   -289921.1 267553.431 321.655205 267231.776 -557474.54 290242.759 10.7218402
 250500     .2505  -283841.88 235538.974 352.040711 235186.934 -519380.86 284193.921 11.7346904
 251000      .251  -273004.57 199664.558 377.369301 199287.189 -472669.13 273381.937 12.5789767
 251500     .2515  -257528.02 160506.167 395.892818 160110.274 -418034.19 257923.917 13.1964273
 252000      .252  -237549.24 118638.458 407.245932 118231.213  -356187.7 237956.483 13.5748644
 252500     .2525  -213310.82 74681.6398 413.535151 74268.1047 -287992.46 213724.357  13.784505
 253000      .253  -185296.58 29406.5403  417.82377 28988.7165 -214703.12 185714.402  13.927459
 253500     .2535  -154187.39 -16281.885 420.264818 -16702.149  -137905.5 154607.653 14.0088273
 254000      .254  -120635.37 -61517.107 418.322048  -61935.43 -59118.264 121053.694 13.9440683
 254500     .2545  -85197.561 -105538.13 409.912985 -105948.04  20340.566 85607.4741 13.6637662
  % % % % % %   Suspended simulation;  plot data space exhausted;  SPY SPACE is required.   LIMBUF =  340000.
  % % % % % %   Suspended simulation;  plot data space exhausted;  SPY SPACE is required.   LIMBUF =  340000.
  +++  Time-sharing disabled.   Send  user-keyed interrupt to silence alarm.
   Current values.  INDBUF  INDBEG  LIMBUF  MFLUSH  NUMDCD  KCARD1  KCARD2
                    339994      50  340000    1005      37       1      41
Plot timespan now in memory (in sec) = 2.12459996E-01   2.54953000E-01
   ++++  Begin plot-data copy from memory to disk.   MFLUSH, INDBUF, N4, Tbeg,  Tend = 1006  339994       1  -1.00000E+00
1.00000E+19
 255000      .255  -48403.927 -147645.96 394.220604 -148040.18 99242.0368 48798.1478 13.1406868
 255500     .2555  -10759.289 -187223.75 371.911233 -187595.66 176464.456 11131.2005 12.3970411
 256000      .256  27159.6668 -223673.38 345.897719 -224019.28 250833.047 -26813.769  11.529924
 256500     .2565  64608.4513 -256332.72 319.188327 -256651.91 320941.173 -64289.263 10.6396109
 257000      .257  100765.547 -284524.55 291.712616 -284816.27 385290.102 -100473.83 9.72375387
 257500     .2575  134940.593  -307716.2 261.455644 -307977.65 442656.792 -134679.14 8.71518814
 258000      .258  166592.085  -325541.1 227.191331 -325768.29 492133.182 -166364.89 7.57304438
 258500     .2585  195272.273 -337760.84 188.868051 -337949.71 533033.117 -195083.41  6.2956017
 259000      .259  220614.749 -344269.04 147.932287 -344416.97 564883.788 -220466.82 4.93107624
 259500     .2595  242230.102 -345011.18 107.666369 -345118.85 587241.282 -242122.44 3.58887897
 260000       .26  259642.123 -339917.23 70.6339201 -339987.86  599559.35 -259571.49   2.354464
 260500     .2605  272406.928  -328969.3 36.3475225 -329005.65 601376.228 -272370.58 1.21158408
 261000      .261  280281.474  -312329.4 3.04289593 -312332.44  592610.87 -280278.43 .101429864
 261500     .2615  283198.158 -290320.02 -30.105031 -290289.91 573518.175 -283228.26  -1.003501
 262000      .262   281216.32 -263388.06 -62.861904  -263325.2 544604.378 -281279.18 -2.0953968
 262500     .2625  274488.092 -232084.59 -93.541998 -231991.05 506572.683 -274581.63 -3.1180666
 263000      .263  263149.844 -196973.56 -119.14356 -196854.42 460123.408 -263268.99 -3.9714521
 263500     .2635  247284.522 -158579.32 -138.05173 -158441.27 405863.845 -247422.57 -4.6017244
 264000      .264  227052.925 -117465.48 -151.47629   -117314. 344518.405  -227204.4 -5.0492096
 264500     .2645  202811.296 -74324.565 -161.30727 -74163.258 277135.861  -202972.6  -5.376909
 265000      .265  175054.317 -29931.953 -168.43861 -29763.515 204986.271 -175222.76 -5.6146205
 265500     .2655  144369.428 14886.6637 -172.78189 15059.4456 129482.764 -144542.21 -5.7593965
 266000      .266  111380.703 59294.7957 -172.86575 59467.6615 52085.9068 -111553.57 -5.7621918
 266500     .2665    76644.28 102535.052 -166.43942 102701.491 -25890.772 -76810.719 -5.5479807
 267000      .267  40637.1967 143959.552   -153.084 144112.636 -103322.36 -40790.281 -5.1027999
 267500     .2675   3891.3613 182940.862 -134.79078 183075.653  -179049.5 -4026.1521 -4.4930259
 268000      .268   -32937.39 218814.662 -113.69365 218928.355 -251752.05 32823.6966 -3.7897885
 268500     .2685   -69140.48 250932.735 -90.895933 251023.631 -320073.22 69049.5845 -3.0298644
 269000      .269   -103997.8 278686.401 -66.527546 278752.928  -382684.2 103931.271 -2.2175849
 269500     .2695  -136845.88 301552.933 -39.410421 301592.343 -438398.82 136806.473 -1.3136807
 270000       .27  -167166.12 319169.615 -8.0784071 319177.693 -486335.73 167158.041 -.26928024
 270500     .2705  -194564.43 331333.273 26.8994847 331306.373  -525897.7 194591.327 .896649491
 271000      .271  -218638.54 337900.904 63.0929766 337837.811 -556539.44 218701.634 2.10309922
 271500     .2715  -238945.78 338754.306 98.3935113 338655.913 -577700.09 239044.178 3.27978371
 272000      .272  -255070.47 333843.537 131.754185 333711.783   -588914. 255202.221 4.39180616
 272500     .2725  -266656.69 323197.916 163.138194 323034.777  -589854.6 266819.826 5.43793979
 273000      .273  -273475.39  306968.53 193.710184  306774.82 -580443.92 273669.103 6.45700614
 273500     .2735  -275485.22 285477.706 224.489879 285253.216 -560962.92 275709.706 7.48299598
 274000      .274  -272777.73 259185.271  254.45594 258930.815   -531963. 273032.184 8.48186466
 274500     .2745  -265449.68 228584.083 281.315822 228302.767 -494033.77    265731. 9.37719405
 275000      .275  -253594.93 194179.934  303.44927 193876.485 -447774.87 253898.384 10.1149757
 275500     .2755  -237356.93 156519.571 320.299978 156199.271  -393876.5 237677.229 10.6766659
 276000      .276  -216952.47 116193.115 332.345695  115860.77 -333145.58 217284.812 11.0781898
 276500     .2765  -192729.17 73869.9807 341.082451 73528.8982 -266599.15 193070.252  11.369415
 277000      .277  -165195.34 30324.9393  347.46984 29977.4695 -195520.28 165542.813  11.582328
 277500     .2775  -134935.78 -13620.993 350.543079 -13971.536 -121314.79 135286.322 11.6847693
 278000      .278  -102496.88 -57197.771 348.600537 -57546.372 -45299.108 102845.479 11.6200179
 278500     .2785   -68395.48 -99691.083 340.813625  -100031.9 31295.6037 68736.2933 11.3604542
 279000      .279  -33156.176 -140424.46 327.359557 -140751.82 107268.281 33483.5351 10.9119852
 279500     .2795  2668.62838 -178755.22 309.407501 -179064.63 181423.851 -2359.2209 10.3135834
 280000       .28  38451.0232 -214040.21 288.860461 -214329.07 252491.233 -38162.163 9.62868204
 280500     .2805  73483.6187 -245624.49 266.726412 -245891.22  319108.11 -73216.892 8.89088039
 281000      .281  107079.689 -272911.06 242.268143 -273153.33 379990.747 -106837.42 8.07560476
 281500     .2815  138663.738  -295436.1 214.433057 -295650.53 434099.837  -138449.3 7.14776858
 282000      .282  167746.947 -312855.24  183.09461 -313038.33 480602.187 -167563.85 6.10315367
 282500     .2825  193897.124  -324925.6 149.012769 -325074.61 518822.724 -193748.11 4.96709229
 283000      .283  216713.713 -331490.04 113.818891 -331603.86  548203.75 -216599.89 3.79396303
 283500     .2835  235784.873  -332438.3 79.5160802 -332517.82 568223.174 -235705.36 2.65053601
 284000      .284  250699.913 -327702.04 46.9115095 -327748.95 578401.952   -250653. 1.56371698
 284500     .2845  261148.971 -317321.33 15.2895305 -317336.62   578470.3 -261133.68 .509651016
 285000      .285  266979.753 -301489.07 -16.071385 -301472.99 568468.819 -266995.82 -.53571282
 285500     .2855  268157.212 -280519.02 -47.012724 -280472.01 548676.232 -268204.22 -1.5670908
 286000      .286  264731.932  -254821.5 -76.631421 -254744.87 519553.428 -264808.56 -2.5543807
 286500     .2865  256804.531 -224872.92  -103.3196  -224769.6 481677.447 -256907.85 -3.4439867
 287000      .287  244483.983 -191172.26 -125.47178 -191046.79 435656.247 -244609.45 -4.1823925
 287500     .2875  227909.384 -154240.38  -142.8716 -154097.51 382149.761 -228052.26 -4.7623866
 288000      .288  207337.369  -114677.5 -156.54827 -114520.95 322014.869 -207493.92 -5.2182756
 288500     .2885  183163.497 -73178.665 -167.29901 -73011.366 256342.163  -183330.8 -5.5766337
 289000      .289  155870.261 -30491.315 -175.11584 -30316.199 186361.575 -156045.38 -5.8371947
 289500     .2895  125990.942 12613.4341  -179.3589  12792.793 113377.508  -126170.3 -5.9786301
 290000       .29  94065.3347 55379.3133 -178.84757 55558.1608 38686.0214 -94244.182 -5.9615856
 290500     .2905  60602.0551 97105.4749 -172.71864 97278.1935  -36503.42 -60774.774 -5.7572879
 291000      .291  26108.9182 137137.517 -161.54275  137299.06  -111028.6 -26270.461 -5.3847584
 291500     .2915  -8835.0797 174816.436 -146.79522 174963.232 -183651.52  8688.2845 -4.8931741
 292000      .292  -43585.633 209481.234 -129.51437 209610.749 -253066.87 43456.1182 -4.3171455
 292500     .2925  -77487.298 240509.152 -109.98585 240619.138 -317996.45 77377.3118 -3.6661949
 293000      .293  -109909.86 267340.911 -87.919659 267428.831 -377250.77 109821.936 -2.9306553
 293500     .2935  -140292.49 289515.826 -62.619628 289578.446 -429808.32 140229.874 -2.0873209
 294000      .294  -168169.38 306698.573 -33.925893 306732.499 -474867.96 168135.457 -1.1308631
 294500     .2945  -193126.89  318653.32  -3.010049  318656.33 -511780.21 193123.881 -.10033497
 295000      .295  -214743.72 325194.092 28.4322414  325165.66 -539937.81 214772.151 .947741382
 295500     .2955  -232610.72 326192.705 59.3200567 326133.384 -558803.43 232670.045 1.97733522
 296000      .296  -246376.57 321606.586 89.3005937 321517.285 -567983.15 246465.867 2.97668646
 296500     .2965  -255777.16 311493.909 118.579489  311375.33 -567271.07 255895.742 3.95264962
 297000      .297  -260669.93 296036.812 147.651056 295889.161 -556706.75 260817.586 4.92170185
  % % % % % %   Suspended simulation;  plot data space exhausted;  SPY SPACE is required.   LIMBUF =  340000.
  % % % % % %   Suspended simulation;  plot data space exhausted;  SPY SPACE is required.   LIMBUF =  340000.
  +++  Time-sharing disabled.   Send  user-keyed interrupt to silence alarm.
   Current values.  INDBUF  INDBEG  LIMBUF  MFLUSH  NUMDCD  KCARD1  KCARD2
                    339994      50  340000    1006      37       1      41
Plot timespan now in memory (in sec) = 2.54952013E-01   2.97445000E-01
   ++++  Begin plot-data copy from memory to disk.   MFLUSH, INDBUF, N4, Tbeg,  Tend = 1007  339994       1  -1.00000E+00
1.00000E+19
 297500     .2975  -261039.59 275548.001  176.33948 275371.661 -536587.59 261215.934 5.87798266
 298000      .298  -256940.51 250426.448 203.337977  250223.11 -507366.96 257143.846 6.77793255
 298500     .2985  -248445.33 221108.414 227.178907 220881.235 -469553.74 248672.506 7.57263023
 299000      .299  -235667.72 188074.189 247.131819 187827.057 -423741.91 235914.855 8.23772728
 299500     .2995  -218793.79 151861.796 263.165602 151598.631 -370655.58 219056.952 8.77218675
 300000       0.3   -198101.1 113072.555 275.780537 112796.775 -311173.66 198376.884 9.19268456
 300500     .3005  -173978.64 72382.4143   285.6292 72096.7851 -246361.05 174264.269 9.52097333
 301000      .301  -146911.45 30531.0378 292.606177 30238.4316 -177442.49 147204.054 9.75353922
 301500     .3015  -117412.26  -11733.47 295.704275 -12029.174 -105678.79 117707.964 9.85680916
 302000      .302  -85979.704 -53696.649 294.039822 -53990.689 -32283.055 86273.7442  9.8013274
 302500     .3025  -53120.317 -94670.041 287.500859 -94957.541 41549.7235  53407.818 9.58336197
 303000      .303  -19368.242  -133984.4 276.605013 -134261.01 114616.161 19644.8474  9.2201671
 303500     .3035  14702.7898 -170986.07 262.321161 -171248.39  185688.86 -14440.469 8.74403869
 304000      .304  48470.6704 -205030.13 245.590478 -205275.72 253500.799  -48225.08 8.18634928
 304500     .3045  81294.7686 -235499.32 226.524168 -235725.84 316794.089 -81068.244 7.55080558
 305000      .305  112584.493 -261857.27 204.539299 -262061.81  374441.76 -112379.95 6.81797662
 305500     .3055  141825.733 -283674.26 179.352287 -283853.62 425499.996 -141646.38 5.97840957
 306000      .306  168556.501 -300612.36 151.394169 -300763.75  469168.86 -168405.11  5.0464723
 306500     .3065  192350.616  -312415.3 121.607277 -312536.91 504765.916 -192229.01 4.05357591
 307000      .307  212805.381 -318897.96 91.2459836 -318989.21 531703.341 -212714.13 3.04153279
 307500     .3075  229536.462 -319935.97 61.3261437  -319997.3 549472.435 -229475.14 2.04420479
 308000      .308  242212.263 -315483.25 31.9815203 -315515.23 557695.508 -242180.28 1.06605068
 308500     .3085  250610.741 -305612.26 2.82958974 -305615.09 556223.002 -250607.91 .094319658
 309000      .309  254625.038 -290518.28 -26.128071 -290492.15 545143.315 -254651.17  -.8709357
 309500     .3095  254232.501 -270493.77 -54.287749 -270439.48  524726.27 -254286.79 -1.8095916
 310000       .31  249474.223  -245909.7 -80.671454 -245829.03 495383.924 -249554.89 -2.6890485
 310500     .3105   240436.82 -217195.08  -104.1529 -217090.93   457631.9 -240540.97 -3.4717634
 311000      .311  227245.924 -184821.16 -124.03884 -184697.12 412067.086 -227369.96 -4.1346281
 311500     .3115  210098.006 -149314.85 -140.51798 -149174.34 359412.859 -210238.52 -4.6839327
 312000      .312  189298.921 -111283.59 -154.12284 -111129.47 300582.511 -189453.04 -5.1374282
 312500     .3125  165249.122 -71401.452  -164.9604 -71236.491 236650.574 -165414.08   -5.49868
 313000      .313  138406.364 -30377.075 -172.64742 -30204.427 168783.439 -138579.01 -5.7549141
 313500     .3135  109259.883 11070.5223 -176.53732 11247.0596 98189.3603 -109436.42 -5.8845773
 314000      .314  78307.3478 52236.8112 -175.97507 52412.7862 26070.5366 -78483.323 -5.8658357
 314500     .3145  46048.4193 92446.8195 -170.86573 92617.6852   -46398.4 -46219.285 -5.6955244
 315000      .315  13013.7113 131041.031 -161.91354 131202.945 -118027.32 -13175.625  -5.397118
 315500     .3155  -20213.105 167360.048 -149.97471 167510.023 -187573.15 20063.1301 -4.9991569
 316000      .316  -53022.757 200765.747  -135.4397 200901.187  -253788.5 52887.3169 -4.5146565
 316500     .3165  -84817.701 230670.323 -118.28028 230788.604 -315488.02 84699.4203  -3.942676
 317000      .317  -115037.71 256557.022 -98.264075 256655.286 -371594.74  114939.45 -3.2754692
 317500     .3175  -143180.66 277999.482 -75.239183 278074.721 -421180.14 143105.423 -2.5079728
 318000      .318  -168802.16 294666.637 -49.652209  294716.29  -463468.8 168752.509 -1.6550736
 318500     .3185  -191484.87 306300.753 -22.585493 306323.339 -497785.63 191462.286 -.75284978
 319000      .319  -210825.52 312703.271 4.93399055 312698.337 -523528.79 210830.458 .164466352
 319500     .3195  -226463.91 313752.091 32.3919924 313719.699   -540216.   226496.3 1.07973308
 320000       .32  -238111.98 309419.206 59.6621049 309359.544 -547531.19 238171.642 1.98873683
 320500     .3205  -245571.65 299780.682 86.8016943 299693.881 -545352.34 245658.456 2.89338981
 321000      .321  -248745.44 285023.435  113.73853 284909.697 -533768.87 248859.175 3.79128433
 321500     .3215  -247623.08  265434.69 139.831112 265294.859 -513057.77 247762.909 4.66103706
 322000      .322  -242245.31 241369.714 164.005838 241205.708 -483615.02 242409.312 5.46686128
 322500     .3225  -232693.52  213235.23 185.431354 213049.798 -445928.75 232878.956 6.18104515
 323000      .323  -219112.41 181498.355 203.817212 181294.538 -400610.77  219316.23 6.79390706
 323500     .3235  -201726.56 146691.787 219.236917  146472.55 -348418.35   201945.8 7.30789725
 324000      .324  -180847.12 109413.126 231.925562   109181.2 -290260.25  181079.05 7.73085207
 324500     .3245  -156869.63 70320.0848 241.943342 70078.1415 -227189.72 157111.576 8.06477806
 325000      .325  -130247.42 30107.7262 248.833243 29858.8929 -160355.14  130496.25 8.29444142
 325500     .3255  -101451.66 -10528.456 251.893932  -10780.35 -90923.206 101703.556 8.39646441
 326000      .326  -70962.992  -50907.62  250.78897 -51158.409 -20055.371 71213.7809 8.35963235
 326500     .3265  -39287.191 -90358.867  245.69961 -90604.567  51071.676 39532.8905 8.18998702
 327000      .327  -6962.2517 -128221.58  237.11665  -128458.7  121259.33 7199.36833 7.90388833
 327500     .3275  25442.5676 -163849.38 225.631873 -164075.01  189291.95 -25216.936 7.52106244
 328000      .328  57337.3278 -196618.55 211.591863 -196830.14 253955.879 -57125.736 7.05306211
 328500     .3285  88144.5041 -225953.38 194.865971 -226148.24 314097.883 -87949.638 6.49553238
 329000      .329  117334.957 -251357.14 175.214022 -251532.36 368692.099 -117159.74 5.84046742
 329500     .3295  144429.816 -272417.76 152.799701 -272570.56 416847.576 -144277.02 5.09332338
 330000       .33    168986.1 -288799.16  128.22134 -288927.38 457785.257 -168857.88 4.27404468
 330500     .3305  190591.513 -300237.66 102.291421 -300339.96 490829.178 -190489.22 3.40971402
 331000      .331  208865.366 -306540.42 75.8200221 -306616.24 515405.782 -208789.55 2.52733407
 331500     .3315  223469.715 -307588.95 49.2801328 -307638.23  531058.66 -223420.44 1.64267109
 332000      .332  234139.552 -303357.91 22.6937619  -303380.6 537497.463 -234116.86 .756458731
 332500     .3325  240706.298 -293931.84  -3.943084  -293927.9  534638.14 -240710.24 -.13143613
 333000      .333  243088.019 -279496.41 -30.255596 -279466.15 522584.425 -243118.27 -1.0085199
 333500     .3335  241270.477 -260321.01 -55.550175 -260265.46 501591.485 -241326.03 -1.8516725
 334000      .334  235297.144 -236746.49 -79.030716 -236667.46 472043.631 -235376.18 -2.6343572
 334500     .3345  225264.498 -209174.61 -100.01866 -209074.59 434439.105 -225364.52 -3.3339555
 335000      .335  211328.467 -178064.47 -118.25154 -177946.21 389392.933 -211446.72 -3.9417181
 335500     .3355  193725.926 -143942.17 -133.87793 -143808.29 337668.093  -193859.8 -4.4625976
 336000      .336  172782.278 -107402.98 -147.00842 -107255.97 280185.256 -172929.29 -4.9002808
 336500     .3365  148889.824 -69091.064 -157.41906 -68933.645 217980.889 -149047.24 -5.2473021
 337000      .337  122483.466 -29676.152 -164.67028 -29511.481 152159.618 -122648.14 -5.4890093
 337500     .3375  94025.3961 10164.0601 -168.30762 10332.3677 83861.3361 -94193.704 -5.6102541
[...]
        45           2.2500000      9.64486586E+05            15           176           41.333333
        46           2.3000000      9.85919622E+05            21           197           34.333333
        47           2.3500000      1.00735266E+06            13           210           30.000000
        48           2.4000000      1.02878569E+06            23           233           22.333333
        49           2.4500000      1.05021873E+06            13           246           18.000000
        50           2.5000000      1.07165176E+06            12           258           14.000000
        51           2.5500000      1.09308480E+06            16           274            8.666667
        52           2.6000000      1.11451783E+06             9           283            5.666667
        53           2.6500000      1.13595087E+06            13           296            1.333333
        54           2.7000000      1.15738390E+06             2           298             .666667
        55           2.7500000      1.17881694E+06             1           299             .333333
        56           2.8000000      1.20024997E+06             1           300             .000000
Summary of preceding table follows:       Grouped data     Ungrouped data
                                 Mean = 2.14733333E+00     2.15273307E+00
                             Variance = 8.15564103E-02     7.84230382E-02
                   Standard deviation = 2.85580830E-01     2.80041137E-01

6 ) -------------------------------------------------------------------------------------------------------------------------------
Statistical distribution of peak voltage  for branch  "X0003A"  to  "X0003B".   Base voltage  for per unit output = 4.28660705E+05
  Interval             voltage         voltage  in     Frequency    Cumulative               Per cent
    number         in per unit      physical units     (density)     frequency     .GE. current value
        39           1.9500000      8.35888375E+05             0             0          100.000000
        40           2.0000000      8.57321410E+05             1             1           99.666667
        41           2.0500000      8.78754445E+05             0             1           99.666667
        42           2.1000000      9.00187481E+05             0             1           99.666667
        43           2.1500000      9.21620516E+05             1             2           99.333333
        44           2.2000000      9.43053551E+05             0             2           99.333333
        45           2.2500000      9.64486586E+05             0             2           99.333333
        46           2.3000000      9.85919622E+05             1             3           99.000000
        47           2.3500000      1.00735266E+06             0             3           99.000000
        48           2.4000000      1.02878569E+06             0             3           99.000000
        49           2.4500000      1.05021873E+06             0             3           99.000000
        50           2.5000000      1.07165176E+06             0             3           99.000000
        51           2.5500000      1.09308480E+06             0             3           99.000000
        52           2.6000000      1.11451783E+06             0             3           99.000000
        53           2.6500000      1.13595087E+06             3             6           98.000000
        54           2.7000000      1.15738390E+06             0             6           98.000000
        55           2.7500000      1.17881694E+06             3             9           97.000000
        56           2.8000000      1.20024997E+06             4            13           95.666667
        57           2.8500000      1.22168301E+06             6            19           93.666667
        58           2.9000000      1.24311604E+06             9            28           90.666667
        59           2.9500000      1.26454908E+06             8            36           88.000000
        60           3.0000000      1.28598212E+06             6            42           86.000000
        61           3.0500000      1.30741515E+06            11            53           82.333333
        62           3.1000000      1.32884819E+06            11            64           78.666667
        63           3.1500000      1.35028122E+06            17            81           73.000000
        64           3.2000000      1.37171426E+06            24           105           65.000000
        65           3.2500000      1.39314729E+06            26           131           56.333333
        66           3.3000000      1.41458033E+06            24           155           48.333333
        67           3.3500000      1.43601336E+06            22           177           41.000000
        68           3.4000000      1.45744640E+06            38           215           28.333333
        69           3.4500000      1.47887943E+06            38           253           15.666667
        70           3.5000000      1.50031247E+06            32           285            5.000000
        71           3.5500000      1.52174550E+06            15           300             .000000
Summary of preceding table follows:       Grouped data     Ungrouped data
                                 Mean = 3.24033333E+00     3.24108560E+00
                             Variance = 5.45968785E-02     5.47780544E-02
                   Standard deviation = 2.33659749E-01     2.34047120E-01

7 ) -------------------------------------------------------------------------------------------------------------------------------
Statistical distribution of peak voltage  for branch  "X0003C"  to  "X0003A".   Base voltage  for per unit output = 4.28660705E+05
  Interval             voltage         voltage  in     Frequency    Cumulative               Per cent
    number         in per unit      physical units     (density)     frequency     .GE. current value
        36           1.8000000      7.71589269E+05             0             0          100.000000
        37           1.8500000      7.93022304E+05             6             6           98.000000
        38           1.9000000      8.14455340E+05             2             8           97.333333
        39           1.9500000      8.35888375E+05            14            22           92.666667
        40           2.0000000      8.57321410E+05            45            67           77.666667
        41           2.0500000      8.78754445E+05            41           108           64.000000
        42           2.1000000      9.00187481E+05            53           161           46.333333
        43           2.1500000      9.21620516E+05            51           212           29.333333
        44           2.2000000      9.43053551E+05            43           255           15.000000
        45           2.2500000      9.64486586E+05            36           291            3.000000
        46           2.3000000      9.85919622E+05             5           296            1.333333
        47           2.3500000      1.00735266E+06             3           299             .333333
        48           2.4000000      1.02878569E+06             1           300             .000000
Summary of preceding table follows:       Grouped data     Ungrouped data
                                 Mean = 2.08750000E+00     2.08697685E+00
                             Variance = 1.04368729E-02     1.02354187E-02
                   Standard deviation = 1.02161015E-01     1.01170246E-01

8 ) -------------------------------------------------------------------------------------------------------------------------------
  SUMMARY   SUMMARY   SUMMARY   SUMMARY   SUMMARY   SUMMARY   SUMMARY   SUMMARY   SUMMARY   SUMMARY   SUMMARY   SUMMARY   SUMMARY
8 ) -------------------------------------------------------------------------------------------------------------------------------
A distribution of peak values among all output branches of the last data card that have the same base value follows.  This
statistical distribution is for the maximum of the peaks at all of these output branches having base  voltage  = 4.28660705E+05
  Interval             voltage         voltage  in     Frequency    Cumulative               Per cent
    number         in per unit      physical units     (density)     frequency     .GE. current value
        45           2.2500000      9.64486586E+05             0             0          100.000000
        46           2.3000000      9.85919622E+05             2             2           99.333333
        47           2.3500000      1.00735266E+06             1             3           99.000000
        48           2.4000000      1.02878569E+06             0             3           99.000000
        49           2.4500000      1.05021873E+06             0             3           99.000000
        50           2.5000000      1.07165176E+06             0             3           99.000000
        51           2.5500000      1.09308480E+06             0             3           99.000000
        52           2.6000000      1.11451783E+06             0             3           99.000000
        53           2.6500000      1.13595087E+06             3             6           98.000000
        54           2.7000000      1.15738390E+06             0             6           98.000000
        55           2.7500000      1.17881694E+06             3             9           97.000000
        56           2.8000000      1.20024997E+06             4            13           95.666667
        57           2.8500000      1.22168301E+06             6            19           93.666667
        58           2.9000000      1.24311604E+06             9            28           90.666667
        59           2.9500000      1.26454908E+06             8            36           88.000000
        60           3.0000000      1.28598212E+06             6            42           86.000000
        61           3.0500000      1.30741515E+06            11            53           82.333333
        62           3.1000000      1.32884819E+06            11            64           78.666667
        63           3.1500000      1.35028122E+06            17            81           73.000000
        64           3.2000000      1.37171426E+06            24           105           65.000000
        65           3.2500000      1.39314729E+06            26           131           56.333333
        66           3.3000000      1.41458033E+06            24           155           48.333333
        67           3.3500000      1.43601336E+06            22           177           41.000000
        68           3.4000000      1.45744640E+06            38           215           28.333333
        69           3.4500000      1.47887943E+06            38           253           15.666667
        70           3.5000000      1.50031247E+06            32           285            5.000000
        71           3.5500000      1.52174550E+06            15           300             .000000
Summary of preceding table follows:       Grouped data     Ungrouped data
                                 Mean = 3.24200000E+00     3.24283611E+00
                             Variance = 5.09976589E-02     5.10336020E-02
                   Standard deviation = 2.25826612E-01     2.25906180E-01

Blank card ends statistical tabulation requests.  |BLANK STATISTICS

                                      Sample curve symbols : "A", "B", and "C"
                                      Theoretical curve symbol : "*"
                                      Common curve symbol : "X"

        Switch  "X0001B"  to  "X0002B"            Switch  "X0001A"  to  "X0002A"            Switch  "X0001C"  to  "X0002C"
1.32420000E+00   switchings per column          1.32420000E+00   switchings per column     1.32420000E+00   switchings per column
              Columns                                     Columns                                     Columns
          5   10   15   20   25   30                5   10   15   20   25   30                5   10   15   20   25   30
     +----+----+----+----+----+----+           +----+----+----+----+----+----+           +----+----+----+----+----+----+
    X                                         X                                         X
    X                                         X                                         X
    X                                         X                                         X
    *A                                        X                                         X
    |*A                                       B*                                        |*C
    |A*                                       | X                                       | X
    |   X                                     | B *                                     |   *  C
    |       X                                 |       X                                 |     C *
    |      A    *                             |           *B                            |       C   *
    |                 * A                     |                 *    B                  |                 *  C
    |                       *     A           |                       X                 |                       *    C
    |                      A    *             |                           *   B         |                    C      *
    |  5.5000E-02                 *     A     |  5.5000E-02              B  *           |  5.5000E-02                 *     C
    |                           *      A      |                         B *             |                         C *
    |                  A    *                 |                       * B               |                       *     C
    |               A *                       |                B*                       |            C    *
    |         A *                             |          B*                             |        C  *
    |       * A                               |       X                                 |       *  C
    |  A*                                     |   X                                     | C *
    | *A                                      | X                                       | X
    |X                                        |X                                        |*C
    X                                         *B                                        X
    X                                         X                                         X
    X                                         X                                         *C
    X                                         X                                         X
   Time (scale = 3.33333333E-04  Sec/line)   Time (scale = 3.33333333E-04  Sec/line)   Time  (scale = 3.33333333E-04  Sec/line)

        Switch  "X0003C"  to  "XX0009"            Switch  "X0001B"  to  "X0002B"            Switch  "X0001A"  to  "X0002A"
1.32420000E+00   switchings per column          1.32420000E+00   switchings per column     1.32420000E+00   switchings per column
              Columns                                     Columns                                     Columns
          5   10   15   20   25   30                5   10   15   20   25   30                5   10   15   20   25   30
     +----+----+----+----+----+----+           +----+----+----+----+----+----+           +----+----+----+----+----+----+
    X                                         X                                         X
    X                                         X                                         X
    X                                         X                                         X
    *A                                        X                                         * C
    |X                                        |X                                        |*C
    | *A                                      | X                                       | X
    |  A*                                     |  B*                                     |   X
    |      A*                                 |    B  *                                 |     C *
    |         A *                             |           *  B                          |          C*
    |                 * A                     |                B*                       |                 X
    |                       *     A           |                       *    B            |                       X
    |                           *    A        |                           *B            |                           * C
    |  1.0000E-02                 *A          |  7.0000E-01                 *   B       |  7.0000E-01                C*
    |                           *   A         |                           *  B          |                           *  C
    |                A      *                 |                   B   *                 |                    C  *
    |                 * A                     |            B    *                       |                 X
    |           X                             |         B *                             |           * C
    |     A *                                 |     B *                                 |       X
    A   *                                     |   *  B                                  |   *C
    A *                                       | X                                       C *
    A*                                        |*B                                       |*C
    *A                                        *B                                        X
    X                                         X                                         X
    X                                         *B                                        X
    X                                         X                                         X
   Time (scale = 3.33333333E-04  Sec/line)   Time (scale = 3.33333333E-04  Sec/line)   Time  (scale = 3.33333333E-04  Sec/line)

   Switch  "X0001C"  to  "X0002C"
     1.32420000E+00   switchings per column
              Columns
          5   10   15   20   25   30
     +----+----+----+----+----+----+
    X
    X
    *A
    X
    |X
    |A*
    | A *
    |       X
    |           *    A
    |          A      *
    |                       *    A
    |                         A *
    |  7.0000E-01                A*
    |                          A*
    |                       X
    |                 *  A
    |           *       A
    |    A  *
    |   X
    A *
    A*
    *A
    X
    *A
    X
   Time (scale = 3.33333333E-04  Sec/line)
 .... Questionable Kolmogorov-Smirnov test result = 4.79983461E-01
 .... Questionable Kolmogorov-Smirnov test result = 8.61125218E-01
 .... Questionable Kolmogorov-Smirnov test result = 6.22920778E-01
 .... Questionable Kolmogorov-Smirnov test result = 8.70941508E-02
 .... Questionable Kolmogorov-Smirnov test result = 7.08509700E-01
 .... Questionable Kolmogorov-Smirnov test result = 9.61921384E-01
 .... Questionable Kolmogorov-Smirnov test result = 7.92096056E-01

Actual List Sizes for the preceding solution follow.       11-Nov-18  11.00.00
   Size  1-10:    24    23    35     3   118     7    33  5298     0     0
   Size 11-20:     0     7 -9999 -9999 -9999     0     0     0    23  3252
   Size 21-30:    36   180  9391     0 -9999     9 -9999 -9999 -9999     0
Seconds for overlays  1-5  :     0.000     0.000     0.000  -- (CP: Wait; Real)
Seconds for overlays  6-11 :     0.000     0.000     0.000
Seconds for overlays 12-15 :     0.000     0.000     0.000
Seconds for time-step loop :     0.000     0.000     0.000
Seconds after DELTAT-loop  :     0.000     0.000     0.000
                               ---------------------------
                   Totals  :     0.000     0.000     0.000

