   ---   55   cards of disk file read into card cache cells  1   onward.
 <===> Done with  "/"-card sorting by data class.    Remember that the source file appears different from interpreted input data.
Alternative Transients Program (ATP),  F77 GNU Linux or DOS.  All rights reserved by Can/Am user group of Portland, Oregon, USA.
 Date (dd-mth-yy) and time of day (hh.mm.ss) = 11-Nov-18  11.00.00    Name of disk plot file, if any, is
Consult the 860-page ATP Rule Book of the Can/Am EMTP User Group in Portland,  Oregon, USA.  Source code date is
Total size of LABCOM tables = 16446853 INTEGER words.  31 VARDIM  List Sizes follow:  6002  10K  192K  900  420K  1200  15K
  120K  2250  3800  720  2K  72800  510  800K  800  90  254  800K  100K  3K  15K  192K  120  45K  260K  600  210K  1100  19  200K
--------------------------------------------------+--------------------------------------------------------------------------------
Descriptive interpretation of input data cards.   |  Input data card images are shown below, all 80 columns, character by character
                                                  0         1         2         3         4         5         6         7         8
                                                  012345678901234567890123456789012345678901234567890123456789012345678901234567890
--------------------------------------------------+--------------------------------------------------------------------------------
Comment card.   KOMPAR > 0.                       |C data:Caso0_ReEnergizacao_Convenc_RPI.atp
Marker card preceding new EMTP data case.         |BEGIN NEW DATA CASE
Comment card.   KOMPAR > 0.                       |C $DUMMY, XYZ000
Misc. data.     1.000E-06   1.000E+00   0.000E+00 |   1.E-6      1.
Misc. data.  500  1  0  0  1  0  0  1  300  0     |     500       1       0       0       1       0       0       1     300
Statistics data.      1    1    0    0    1    0  |       1       1       0       0       1      -1                               0
Series R-L-C.   5.000E+00  7.500E-02  0.000E+00   |  X0001AX0007A                5.   75.                                         0
Series R-L-C.   5.000E+00  7.500E-02  0.000E+00   |  X0001BX0007B                5.   75.                                         0
Series R-L-C.   5.000E+00  7.500E-02  0.000E+00   |  X0001CX0007C                5.   75.                                         0
Series R-L-C.   2.000E+02  0.000E+00  0.000E+00   |  X0007AX0001A              200.                                               0
Series R-L-C.   2.000E+02  0.000E+00  0.000E+00   |  X0007BX0001B              200.                                               0
Series R-L-C.   2.000E+02  0.000E+00  0.000E+00   |  X0007CX0001C              200.                                               0
Series R-L-C.   1.516E+00  1.608E+00  0.000E+00   |  X0003BXX0008            1.5155 1608.                                         0
Series R-L-C.   1.516E+00  1.608E+00  0.000E+00   |  X0003AXX0008            1.5155 1608.                                         0
Series R-L-C.   1.516E+00  1.608E+00  0.000E+00   |  X0003CXX0008            1.5155 1608.                                         0
Series R-L-C.   3.272E-01  3.472E-01  0.000E+00   |  XX0008                   .3272 347.2                                         0
Series R-L-C.   3.000E+01  0.000E+00  0.000E+00   |  XX0009                     30.                                               0
Series R-L-C.   2.000E+02  0.000E+00  0.000E+00   |  X0002AX0010A              200.                                               0
Series R-L-C.   2.000E+02  0.000E+00  0.000E+00   |  X0002BX0010B              200.                                               0
Series R-L-C.   2.000E+02  0.000E+00  0.000E+00   |  X0002CX0010C              200.                                               0
Dynamic $INCLUDE uses fixed RAM cache to delay.   |$INSERT, C:\SimulacaoATP\EXT1.pch
J. Marti line, mode  1   parameters begin.        |-1X0010AX0006C                2.  0.00              -2 3
J. Marti line, mode  2   parameters begin.        |-2X0010BX0006A                2.  0.00              -2 3
J. Marti line, mode  3   parameters begin.        |-3X0010CX0006B                2.  0.00              -2 3
TR(1,1 )...  0.667-0.707-0.317                    |  0.66668704 -0.70710678 -0.31743981
TI(1,1 )...  0.000 0.000 0.004                    |  0.00000000  0.00000000  0.00360196
TR(2,1 )...  0.333 0.000 0.894                    |  0.33285412  0.00000000  0.89350256
TI(2,1 )... -0.016 0.000 0.010                    | -0.01627623  0.00000000  0.00954818
TR(3,1 )...  0.667 0.707-0.317                    |  0.66668704  0.70710678 -0.31743981
TI(3,1 )...  0.000 0.000 0.004                    |  0.00000000  0.00000000  0.00360196
Dynamic $INCLUDE uses fixed RAM cache to delay.   |$INSERT, C:\SimulacaoATP\CONV2.pch
J. Marti line, mode  1   parameters begin.        |-1X0004AX0005C                2.  0.00              -2 3
J. Marti line, mode  2   parameters begin.        |-2X0004BX0005A                2.  0.00              -2 3
J. Marti line, mode  3   parameters begin.        |-3X0004CX0005B                2.  0.00              -2 3
TR(1,1 )...  0.667-0.707-0.317                    |  0.66668704 -0.70710678 -0.31743981
TI(1,1 )...  0.000 0.000 0.004                    |  0.00000000  0.00000000  0.00360196
TR(2,1 )...  0.333 0.000 0.894                    |  0.33285412  0.00000000  0.89350256
TI(2,1 )... -0.016 0.000 0.010                    | -0.01627623  0.00000000  0.00954818
TR(3,1 )...  0.667 0.707-0.317                    |  0.66668704  0.70710678 -0.31743981
TI(3,1 )...  0.000 0.000 0.004                    |  0.00000000  0.00000000  0.00360196
Dynamic $INCLUDE uses fixed RAM cache to delay.   |$INSERT, C:\SimulacaoATP\EXT3.pch
J. Marti line, mode  1   parameters begin.        |-1X0005AX0003A                2.  0.00              -2 3
J. Marti line, mode  2   parameters begin.        |-2X0005BX0003B                2.  0.00              -2 3
J. Marti line, mode  3   parameters begin.        |-3X0005CX0003C                2.  0.00              -2 3
TR(1,1 )...  0.667-0.707-0.317                    |  0.66668704 -0.70710678 -0.31743981
TI(1,1 )...  0.000 0.000 0.004                    |  0.00000000  0.00000000  0.00360196
TR(2,1 )...  0.333 0.000 0.894                    |  0.33285412  0.00000000  0.89350256
TI(2,1 )... -0.016 0.000 0.010                    | -0.01627623  0.00000000  0.00954818
TR(3,1 )...  0.667 0.707-0.317                    |  0.66668704  0.70710678 -0.31743981
TI(3,1 )...  0.000 0.000 0.004                    |  0.00000000  0.00000000  0.00360196
Dynamic $INCLUDE uses fixed RAM cache to delay.   |$INSERT, C:\SimulacaoATP\CONV4.pch
J. Marti line, mode  1   parameters begin.        |-1X0006AX0004C                2.  0.00              -2 3
J. Marti line, mode  2   parameters begin.        |-2X0006BX0004A                2.  0.00              -2 3
J. Marti line, mode  3   parameters begin.        |-3X0006CX0004B                2.  0.00              -2 3
TR(1,1 )...  0.667-0.707-0.317                    |  0.66668704 -0.70710678 -0.31743981
TI(1,1 )...  0.000 0.000 0.004                    |  0.00000000  0.00000000  0.00360196
TR(2,1 )...  0.333 0.000 0.894                    |  0.33285412  0.00000000  0.89350256
TI(2,1 )... -0.016 0.000 0.010                    | -0.01627623  0.00000000  0.00954818
TR(3,1 )...  0.667 0.707-0.317                    |  0.66668704  0.70710678 -0.31743981
TI(3,1 )...  0.000 0.000 0.004                    |  0.00000000  0.00000000  0.00360196
Blank card ending branches.  IBR, NTOT = 26  27   |BLANK BRANCH
Switch.   5.50E-02  1.00E-03  0.00E+00  3.33E+03  |  X0001BX0002B      .055      .001               3333.STATISTICS               0
Switch.   5.50E-02  1.00E-03  0.00E+00  3.33E+03  |  X0001AX0002A      .055      .001               3333.STATISTICS               0
Switch.   5.50E-02  1.00E-03  0.00E+00  3.33E+03  |  X0001CX0002C      .055      .001               3333.STATISTICS               0
Switch.   1.00E-02  1.00E-03  0.00E+00  0.00E+00  |  X0003CXX0009       .01      .001                    STATISTICS               1
Switch.   7.00E-01  1.00E-03  0.00E+00  0.00E+00  |  X0001BX0002B        .7      .001                    STATISTICS               0
Switch.   7.00E-01  1.00E-03  0.00E+00  0.00E+00  |  X0001AX0002A        .7      .001                    STATISTICS               0
Switch.   7.00E-01  1.00E-03  0.00E+00  0.00E+00  |  X0001CX0002C        .7      .001                    STATISTICS               0
Switch.   0.00E+00  6.98E-01  0.00E+00  0.00E+00  |  X0002AX0010A                .698                                             0
Switch.   0.00E+00  6.98E-01  0.00E+00  0.00E+00  |  X0002BX0010B                .698                                             0
Switch.   0.00E+00  6.98E-01  0.00E+00  0.00E+00  |  X0002CX0010C                .698                                             0
Switch.   7.10E-01  0.00E+00  0.00E+00  0.00E+00  |  X0002AX0010A       .71                                                       0
Switch.   7.10E-01  0.00E+00  0.00E+00  0.00E+00  |  X0002BX0010B       .71                                                       0
Switch.   7.10E-01  0.00E+00  0.00E+00  0.00E+00  |  X0002CX0010C       .71                                                       0
Blank card ending switches.   KSWTCH = 13.        |BLANK SWITCH
Source.   4.29E+05  6.00E+01  0.00E+00 -1.00E+00  |14X0007A  428660.705       60.                                     -1.      100.
Source.   4.29E+05  6.00E+01 -1.20E+02 -1.00E+00  |14X0007B  428660.705       60.     -120.                           -1.      100.
Source.   4.29E+05  6.00E+01 -2.40E+02 -1.00E+00  |14X0007C  428660.705       60.     -240.                           -1.      100.
Blank card ends electric sources.  KCONST = 3     |BLANK SOURCE

     Total network loss  P-loss  by summing injections =   1.471974235173E+08

Card of names for time-step loop output.          |  X0003AX0003BX0003C
Output voltage differences for pairs of A6 names  |-5X0003BX0003CX0003AX0003BX0003CX0003A
Blank card ending requests for output variables.  |BLANK OUTPUT

Column headings for the  7   EMTP output variables follow.  These are divided among the 5 possible classes as follows ....
  First  6     output variables are electric-network voltage differences (upper voltage minus lower voltage);
  Next   1     output variables are branch currents (flowing from the upper node to the lower node);
   Step      Time      X0003A     X0003B     X0003C     X0003B     X0003A     X0003C     X0003C
                                                        X0003C     X0003B     X0003A     XX0009
 ***      Phasor I(0) =  4.4900481E+02                     Switch  "X0001B"  to  "X0002B"  closed in the steady-state.
 ***      Phasor I(0) =  2.3356973E+02                     Switch  "X0001A"  to  "X0002A"  closed in the steady-state.
 ***      Phasor I(0) = -6.8317115E+02                     Switch  "X0001C"  to  "X0002C"  closed in the steady-state.
 ***                    Switch  "X0002A"  to  "X0010A"  closed  after  0.00000000E+00  sec.
 ***                    Switch  "X0002B"  to  "X0010B"  closed  after  0.00000000E+00  sec.
 ***                    Switch  "X0002C"  to  "X0010C"  closed  after  0.00000000E+00  sec.
      0       0.0  400856.041 -321687.26 -74464.235 -247223.02 722543.297 -475320.28        0.0
    500     .5E-3  419006.447 -263874.48 -150309.66 -113564.82 682880.927 -569316.11        0.0
   1000     .1E-2  424090.146 -197301.53 -220847.72 23546.1913 621391.679 -644937.87        0.0
   1500     .0015  413667.798 -123496.22 -283530.29  160034.07  537164.02 -697198.09        0.0
   2000      .002  420658.514 62615.3691 -514155.57 576770.941 358043.145 -934814.09        0.0
   2500     .0025  361955.815 204597.813 -563857.66 768455.474 157358.002 -925813.48        0.0
   3000      .003  280885.142 308286.538 -584605.86 892892.393 -27401.396   -865491.        0.0
   3500     .0035  179928.433 383992.463 -563343.45 947335.915 -204064.03 -743271.89        0.0
   4000      .004  75100.9756 451411.053 -509338.28 960749.336 -376310.08 -584439.26        0.0
   4500     .0045  -27799.827 500975.555 -447314.36 948289.917 -528775.38 -419514.54        0.0
   5000      .005  -136445.57 528104.318 -372885.71 900990.031 -664549.89 -236440.14        0.0
   5500     .0055  -261291.57 501892.266 -229460.02 731352.285 -763183.84  31831.555        0.0
   6000      .006   -348558.4   446445.1   -88167.3   534612.4  -795003.5 260391.096        0.0
   6500     .0065  -409152.43 387941.503 33030.2303 354911.273 -797093.93 442182.656        0.0
   7000      .007   -448742.2 330124.141 126160.707 203963.435 -778866.34 574902.906        0.0
   7500     .0075   -466118.4 271740.517 191157.888 80582.6283 -737858.92 657276.289        0.0
   8000      .008  -467700.93 206742.457 245136.634 -38394.177 -674443.39 712837.565        0.0
   8500     .0085  -454901.87 136199.694 292543.841 -156344.15 -591101.56 747445.709        0.0
   9000      .009  -414966.83 70379.8004  315654.61 -245274.81 -485346.63 730621.439        0.0
   9500     .0095  -365264.98 17997.4974 321614.217 -303616.72 -383262.48 686879.198        0.0
  10000       .01  -314539.26 -32313.031 323221.767  -355534.8 -282226.23 637761.027        0.0
 ***                                                             Close switch  "X0003C"  to  "XX0009"  after  1.00010000E-02  sec.
  10500     .0105  -340873.62 -171377.06  31652.484 -203029.55 -169496.56 372526.105  1055.0828
  11000      .011  -295219.24   -236725.  34471.934 -271196.94 -58494.239 329691.175 1149.06447
  11500     .0115  -237623.31 -308575.03 37625.1793 -346200.21 70951.7233 275248.486 1254.17264
  12000      .012  -180877.31  -388751.6 42559.9463 -431311.55 207874.292 223437.255 1418.66488
  12500     .0125  -114557.21 -442775.59   45102.56 -487878.15 328218.385  159659.77 1503.41867
  13000      .013   -24910.74 -487038.16 45021.5742 -532059.73 462127.418  69932.314 1500.71914
  13500     .0135  9323.04314 -538594.94 45701.3898 -584296.33 547917.984 36378.3467 1523.37966
  14000      .014  20844.7818 -632645.57 55067.3272  -687712.9 653490.354 34222.5453 1835.57757
  14500     .0145  150532.485 -596740.18 62918.7197  -659658.9 747272.663 -87613.765 2097.29066
  15000      .015  271039.983 -523386.85 65538.8472 -588925.69 794426.831 -205501.14 2184.62824
  15500     .0155  362352.454  -436482.2 61637.2476 -498119.44  798834.65 -300715.21 2054.57492
  16000      .016  443026.926 -339505.36 54503.2784 -394008.64 782532.289 -388523.65 1816.77595
  16500     .0165  512069.589 -226361.41 45707.2957 -272068.71    738431. -466362.29 1523.57652
  17000      .017  569560.065 -96681.968 33731.9895 -130413.96 666242.033 -535828.08 1124.39965
  17500     .0175  598853.961 32933.3117 20090.1247  12843.187 565920.649 -578763.84 669.670822
  18000      .018  593651.106  163718.19 10836.1305 152882.059 429932.916 -582814.98 361.204349
  18500     .0185   563806.74 283480.022 5313.40748 278166.615 280326.718 -558493.33 177.113583
  19000      .019  508501.547 377847.855 -1697.9031 379545.758 130653.692 -510199.45 -56.596768
  19500     .0195   431754.03 451324.939  -10011.87 461336.809 -19570.909  -441765.9   -333.729
  20000       .02  334727.261 504241.515 -18703.269 522944.785 -169514.25 -353430.53 -623.44232
  20500     .0205  226398.509 537525.711 -27285.406 564811.118  -311127.2 -253683.92 -909.51354
  21000      .021  114396.426 552713.994 -35928.022 588642.016 -438317.57 -150324.45 -1197.6007
  21500     .0215  -4611.4519 541149.924 -43797.255 584947.179 -545761.38 -39185.803 -1459.9085
  22000      .022  -125798.33 504731.707 -48944.389 553676.096 -630530.03 76853.9369 -1631.4796
  22500     .0225   -233928.4 459768.955 -51038.656 510807.611 -693697.35 182889.741 -1701.2885
  23000      .023  -323376.75  413144.52 -50474.335 463618.855 -736521.27 272902.413 -1682.4778
  23500     .0235  -395077.15  361361.71 -47979.306 409341.017 -756438.86 347097.844 -1599.3102
  24000      .024  -450480.67 301259.052 -43827.282 345086.335 -751739.72 406653.385 -1460.9094
  24500     .0245  -489013.37 232837.107 -38198.518 271035.625 -721850.48 450814.855 -1273.2839
  25000      .025  -509622.86 158151.123 -31667.981 189819.104 -667773.99 477954.882 -1055.5994
  25500     .0255  -514683.74 77166.9655 -24490.762 101657.727 -591850.71 490192.983 -816.35873
  26000      .026  -505251.56 -9501.2663 -16150.068 6648.80184 -495750.29 489101.492 -538.33561
  26500     .0265  -481806.92  -101039.6 -6372.8229 -94666.779 -380767.32 475434.102 -212.42743
  27000      .027  -445564.66  -195669.6 4302.43387 -199972.04 -249895.05 449867.091 143.414462
  27500     .0275  -397241.52 -289451.76 15116.0515 -304567.81 -107789.75 412357.568 503.868385
  28000      .028  -337256.02 -377307.06 25491.7563 -402798.81 40051.0315  362747.78 849.725209
  28500     .0285  -265687.48 -453631.89 34956.8362 -488588.72 187944.409 300644.316 1165.22787
  29000      .029  -183186.35 -513623.25 42982.4195 -556605.67 330436.902  226168.77 1432.74732
  29500     .0295  -92834.463 -554635.14  49204.123 -603839.27  461800.68 142038.586 1640.13743
  30000       .03  1834.49898 -574598.21 53578.7947   -628177. 576432.705 51744.2957 1785.95982
  30500     .0305  98527.7172 -571020.69 56181.5465 -627202.24 669548.406 -42346.171 1872.71822
  31000      .031  195166.977 -542246.78 57066.5169  -599313.3 737413.756 -138100.46 1902.21723
  31500     .0315  288370.775 -489065.55 56234.2187 -545299.76  777436.32 -232136.56 1874.47396
  32000      .032   373725.26 -414678.43 53697.1306 -468375.56 788403.689 -320028.13 1789.90435
  32500     .0325   447001.86 -323466.77 49494.7881 -372961.56 770468.633 -397507.07 1649.82627
  33000      .033  504719.784 -220250.79 43647.5688 -263898.36 724970.574 -461072.22 1454.91896
  33500     .0335  543974.889 -110224.11  36241.155 -146465.26 654198.996 -507733.73  1208.0385
  34000      .034  562595.695 1410.73694 27542.8031 -26132.066 561184.958 -535052.89 918.093438
  34500     .0345  559270.825 109739.211 17956.8011 91782.4102 449531.614 -541314.02 598.560038
  35000      .035  533760.852 210409.353 7890.72511 202518.628 323351.499 -525870.13  263.02417
  35500     .0355  487067.267  299992.47 -2296.6428 302289.113 187074.797 -489363.91 -76.554759
  36000      .036  421376.014 376158.027  -12266.38 388424.407 45217.9867 -433642.39 -408.87934
  36500     .0365  339900.841 437605.492 -21691.982 459297.474 -97704.651 -361592.82 -723.06607
  37000      .037  246474.689 483681.804 -30287.642 513969.446 -237207.11 -276762.33 -1009.5881
  37500     .0375  145058.367 513923.849 -37803.958 551727.807 -368865.48 -182862.32 -1260.1319
  38000      .038   39627.746 527972.235 -43999.047 571971.282 -488344.49 -83626.793 -1466.6349
  38500     .0385  -65757.128  525770.06 -48635.008 574405.068 -591527.19 17122.1203 -1621.1669
  39000      .039  -167077.85 507640.416 -51503.435 559143.851 -674718.26 115574.413 -1716.7812
  39500     .0395   -260689.7 474106.096 -52455.768 526561.864  -734795.8 208233.932 -1748.5256
  40000       .04  -343561.97 425748.794 -51419.959 477168.753 -769310.77 292142.012 -1713.9986
  40500     .0405   -413266.4 363328.923  -48412.19 411741.113 -776595.33 364854.213 -1613.7397
  41000      .041  -467897.96 288017.747 -43548.088 331565.835  -755915.7 424349.868 -1451.6029
  41500     .0415   -506069.2 201562.477 -37033.338 238595.815 -707631.67 469035.859 -1234.4446
  42000      .042  -526925.55 106343.647 -29133.145 135476.792  -633269.2 497792.409 -971.10485
  % % % % % %   Suspended simulation;  plot data space exhausted;  SPY SPACE is required.   LIMBUF =  340000.
  % % % % % %   Suspended simulation;  plot data space exhausted;  SPY SPACE is required.   LIMBUF =  340000.
  +++  Time-sharing disabled.   Send  user-keyed interrupt to silence alarm.
   Current values.  INDBUF  INDBEG  LIMBUF  MFLUSH  NUMDCD  KCARD1  KCARD2
                    339994      50  340000    1000      46       1      50
Plot timespan now in memory (in sec) = 0.00000000E+00   4.24930000E-02
   ++++  Begin plot-data copy from memory to disk.   MFLUSH, INDBUF, N4, Tbeg,  Tend = 1001  339994       1  -1.00000E+00
1.00000E+19
  42500     .0425  -530130.31 5334.19509 -20145.782 25479.9772 -535464.51  509984.53 -671.52607
  43000      .043  -515818.91  -97990.24 -10394.488 -87595.752 -417828.67 505424.426 -346.48293
  43500     .0435  -484549.26 -199760.16 -225.56195  -199534.6  -284789.1 484323.703 -7.5187316
  44000      .044  -437266.26 -295858.14 10001.1381 -305859.27 -141408.12 447267.397 333.371269
  44500     .0445  -375284.63 -382131.59 19924.9129  -402056.5 6846.96324 395209.541 664.163762
  45000      .045  -300313.74 -454690.19 29193.3637 -483883.55 154376.448 329507.106 973.112123
  45500     .0455  -214508.89 -510232.98 37472.4045 -547705.38 295724.087 251981.293 1249.08015
  46000      .046  -120486.92 -546299.52 44461.3138 -590760.83 425812.593 164948.238 1482.04379
  46500     .0465  -21271.144 -561391.78 49908.9875 -611300.77 540120.634 71180.1316 1663.63292
  47000      .047  79808.0214 -555001.98 53625.6766 -608627.66 634810.006 -26182.345 1787.52255
  47500     .0475  179214.478 -527602.63 55488.9168 -583091.54 706817.103 -123725.56 1849.63056
  48000      .048    273314.3 -480600.07 55445.3979 -536045.47 753914.373  -217868.9 1848.17993
  48500     .0485  358519.399 -416220.11 53509.0228 -469729.14 774739.513 -305010.38 1783.63409
  49000      .049  431463.896 -337327.25 49755.3946 -387082.64 768791.143  -381708.5 1658.51315
  49500     .0495  489184.903 -247217.01 44315.9038 -291532.91  736401.91   -444869. 1477.19679
  50000       .05  529283.458 -149422.28 37374.2876 -186796.57 678705.739 -491909.17 1245.80959
  50500     .0505  550053.263 -47553.492 29164.3699 -76717.862 597606.755 -520888.89 972.145664
  51000      .051  550572.683 54827.7961 19965.4449 34862.3512 495744.886 -530607.24 665.514831
  51500     .0515  530757.343 154309.825 10094.0921 144215.732 376447.519 -520663.25 336.469738
  52000      .052  491371.063  247711.51 -106.18603 247817.696 243659.553 -491477.25 -3.5395343
  52500     .0525  433991.857 332142.397 -10276.664 342419.061  101849.46 -444268.52 -342.55548
  53000      .053  360928.376 405038.727 -20056.634 425095.361 -44110.351 -380985.01 -668.55448
  53500     .0535  275089.977 464181.617 -29097.617 493279.234 -189091.64 -304187.59 -969.92056
  54000      .054  179827.658 507714.946 -37077.007 544791.953 -327887.29 -216904.67 -1235.9002
  54500     .0545  78768.3384 534180.194 -43709.984 577890.177 -455411.86 -122478.32 -1456.9995
  55000      .055  -24343.922 542571.083 -48759.454 591330.537 -566915.01 -24415.532 -1625.3151
  55500     .0555  -125796.83 532396.242  -52044.19 584440.431 -658193.07  73752.637 -1734.8063
  56000      .056  -222046.15 503736.327 -53445.118 557181.445 -725782.48 168601.031 -1781.5039
 ***                                                             Open  switch  "X0001B"  to  "X0002B"  after  5.60930000E-02  sec.
  56500     .0565    -309832. 457288.289 -52909.819 510198.107 -767120.29 256922.178 -1763.6606
  57000      .057  -386268.85 394391.767  -50455.21 444846.977 -780660.62 335813.641 -1681.8403
  57500     .0575  -448910.02 317029.843 -46167.981 363197.824 -765939.86  402742.04 -1538.9327
  58000      .058  -502896.12 244206.068 -40866.961 285073.029 -747102.19 462029.164  -1362.232
  58500     .0585  -537972.68 194522.039 -34414.991  228937.03 -732494.71 503557.684 -1147.1664
  59000      .059  -547780.66 147085.232 -25964.565 173049.796  -694865.9 521816.099 -865.48548
 ***                                                             Open  switch  "X0001A"  to  "X0002A"  after  5.93620000E-02  sec.
  59500     .0595  -539460.69 92103.3993 -16563.271 108666.671 -631564.09  522897.42 -552.10904
 ***                                                             Open  switch  "X0001C"  to  "X0002C"  after  5.99970000E-02  sec.
  60000       .06  -515480.41 28953.4458 -6491.8281  35445.274 -544433.86 508988.585 -216.39427
  60500     .0605  -473972.62 -40556.742 3881.01663 -44437.759 -433415.88 477853.638 129.367221
  61000      .061  -414487.32 -115687.67 14205.9402 -129893.61 -298799.65 428693.261 473.531339
  61500     .0615  -387906.66 -176420.76 25303.6454  -201724.4  -211485.9 413210.302 843.454846
  62000      .062  -327649.93  -198208.6 29463.1941 -227671.79 -129441.33 357113.123 982.106471
  62500     .0625  -263239.25 -224308.51 26565.3536 -250873.86 -38930.742 289804.603 885.511786
  63000      .063  -199142.14 -263409.16 21930.6877 -285339.84 64267.0196 221072.823 731.022924
  63500     .0635  -123185.35 -303919.81 16491.9055 -320411.72 180734.464 139677.254 549.730183
  64000      .064  -35042.417 -340035.75 9870.14082 -349905.89  304993.33  44912.558 329.004694
  64500     .0645  53448.4316 -379319.57 2833.68567 -382153.25 432767.998 -50614.746  94.456189
  65000      .065   107954.43 -394340.14 -4030.9164 -390309.22  502294.57 -111985.35 -134.36388
  65500     .0655  155441.329 -407678.94 -10723.473 -396955.47 563120.268  -166164.8 -357.44911
  66000      .066  180122.072 -438496.98 -13944.613 -424552.36 618619.049 -194066.68 -464.82043
  66500     .0665   236830.51 -445852.16 -13308.254 -432543.91 682682.671 -250138.76 -443.60845
  67000      .067   297682.14  -446864.8 -11610.871 -435253.93 744546.943 -309293.01 -387.02905
  67500     .0675  355757.052 -446703.59 -8968.6392 -437734.95 802460.645 -364725.69 -298.95464
  68000      .068  402576.055 -442310.38 -4654.0964 -437656.28 844886.435 -407230.15 -155.13655
  68500     .0685  420990.299 -409364.57 507.249945 -409871.82 830354.867 -420483.05 16.9083315
  69000      .069  431184.288 -371163.02  5707.4021 -376870.42  802347.31 -425476.89 190.246737
  69500     .0695   447938.28 -325495.38 9892.94123 -335388.32 773433.661 -438045.34 329.764708
  70000       .07  473267.189 -274091.43 10655.8183 -284747.25 747358.623 -462611.37 355.193943
  70500     .0705   486221.47   -227109. 10276.7316 -237385.73 713330.467 -475944.74  342.55772
  71000      .071  495579.149 -180929.51 9743.18899  -190672.7 676508.663 -485835.96 324.772966
  71500     .0715  492314.786 -123520.96 8408.08893 -131929.05 615835.742  -483906.7 280.269631
  72000      .072  462373.941 -50169.506 5793.20735 -55962.714 512543.447 -456580.73 193.106912
  72500     .0725  422696.621 19549.5453 2418.62914 17130.9162 403147.076 -420277.99 80.6209713
  73000      .073  385345.518 81521.8205 -1181.8808 82703.7013 303823.697  -386527.4 -39.396028
  73500     .0735  336697.359 126693.741 -3737.4287 130431.169 210003.618 -340434.79 -124.58096
  74000      .074  292176.187 172976.498 -4835.4867 177811.984 119199.689 -297011.67 -161.18289
  74500     .0745  250807.871 215050.065 -5055.3191 220105.384  35757.806 -255863.19 -168.51064
  75000      .075  190683.825 262677.565 -4750.7138 267428.279 -71993.741 -195434.54 -158.35713
  75500     .0755  113292.601 311928.167 -3678.4722 315606.639 -198635.57 -116971.07 -122.61574
  76000      .076  38269.2943 355450.385  -1920.918 357371.303 -317181.09 -40190.212 -64.030598
  76500     .0765  -27239.208 387356.671 244.552811 387112.119 -414595.88 27483.7613 8.15176038
  77000      .077  -86669.009 408035.582 2636.36316 405399.219 -494704.59 89305.3718 87.8787721
  77500     .0775  -135658.46 423788.552 3979.57318 419808.978 -559447.01 139638.032 132.652439
  78000      .078  -183067.23  426276.68 4824.63639 421452.044 -609343.91 187891.871 160.821213
  78500     .0785  -243900.09 434148.662 5633.21156  428515.45 -678048.75 249533.298 187.773719
  79000      .079  -303956.37 442277.949 5847.50713 436430.442 -746234.32 309803.873 194.916904
  79500     .0795  -353128.41 441512.757 5106.36562 436406.392 -794641.17 358234.777 170.212187
  80000       .08  -389517.75 425438.315 3895.55849 421542.757 -814956.06 393413.305  129.85195
  80500     .0805   -414627.9 397505.692 2490.39284 395015.299 -812133.59 417118.291 83.0130948
  81000      .081  -433337.37 357455.325 1221.96482 356233.361  -790792.7 434559.335 40.7321606
  81500     .0815  -444917.23 309507.889 569.100084 308938.789 -754425.11 445486.325 18.9700028
  82000      .082  -462787.52 271477.907 126.458097 271351.449 -734265.43 462913.983  4.2152699
  82500     .0825  -474695.53 231887.014 -447.09659  232334.11 -706582.54 474248.434  -14.90322
  83000      .083  -474769.05 183318.662 -732.45997 184051.121 -658087.71  474036.59 -24.415332
  83500     .0835   -458914.4 126385.566 -403.87048 126789.436 -585299.96 458510.528 -13.462349
  84000      .084   -430809.1 65179.0794 298.848716 64880.2307 -495988.18  431107.95 9.96162386
  84500     .0845  -394215.36 -143.57533 1309.31411 -1452.8894 -394071.78 395524.671 43.6438038
  % % % % % %   Suspended simulation;  plot data space exhausted;  SPY SPACE is required.   LIMBUF =  340000.
  % % % % % %   Suspended simulation;  plot data space exhausted;  SPY SPACE is required.   LIMBUF =  340000.
  +++  Time-sharing disabled.   Send  user-keyed interrupt to silence alarm.
   Current values.  INDBUF  INDBEG  LIMBUF  MFLUSH  NUMDCD  KCARD1  KCARD2
                    339994      50  340000    1001      46       1      50
Plot timespan now in memory (in sec) = 4.24919985E-02   8.49850000E-02
   ++++  Begin plot-data copy from memory to disk.   MFLUSH, INDBUF, N4, Tbeg,  Tend = 1002  339994       1  -1.00000E+00
1.00000E+19
  85000      .085  -352059.61  -62818.07 2264.94636 -65083.016 -289241.54 354324.558 75.4982119
  85500     .0855  -318868.04 -113937.79 2874.27629 -116812.07 -204930.25 321742.312 95.8092096
  86000      .086  -280723.29 -161694.03 3215.53634 -164909.57 -119029.25 283938.822 107.184545
  86500     .0865  -230163.61 -209773.79 3429.09094 -213202.88 -20389.823 233592.704 114.303031
  87000      .087  -168106.67 -257710.66 3349.66632 -261060.33 89603.9953 171456.332 111.655544
  87500     .0875  -101645.37 -303827.77 2983.81056 -306811.58 202182.407 104629.177  99.460352
  88000      .088  -32451.165 -348075.59 2570.80541 -350646.39 315624.424 35021.9707 85.6935138
  88500     .0885  29912.8937 -383301.49 2152.56207 -385454.05  413214.38 -27760.332 71.7520689
  89000      .089  80026.7638 -404179.43   1711.655 -405891.08 484206.191 -78315.109 57.0551667
  89500     .0895  130746.875 -417426.85 1091.34493 -418518.19 548173.722 -129655.53 36.3781642
  90000       .09  186690.594 -427452.27 428.862319 -427881.13 614142.864 -186261.73 14.2954106
  90500     .0905  243536.484 -434889.41 -38.213081  -434851.2 678425.896  -243574.7 -1.2737694
  91000      .091  297381.862 -436509.86 -183.10609 -436326.75 733891.717 -297564.97 -6.1035364
  91500     .0915  347739.904 -432832.53 4.71487154 -432837.24 780572.432 -347735.19 .157162385
  92000      .092  382403.754 -415959.06 391.974223 -416351.03  798362.81 -382011.78 13.0658074
  92500     .0925  403727.183 -385807.09 684.336401 -386491.43 789534.273 -403042.85 22.8112134
  93000      .093  420368.441 -350431.65  755.02586 -351186.68 770800.095 -419613.42 25.1675287
  93500     .0935  436595.636 -313547.97 832.256667 -314380.22 750143.604 -435763.38 27.7418889
  94000      .094  449600.272  -274213.5 1019.25174 -275232.76 723813.776 -448581.02  33.975058
  94500     .0945  456826.448 -230279.34 1156.83762 -231436.18 687105.791 -455669.61 38.5612539
  95000      .095  456364.536 -184208.18 1263.47365 -185471.65 640572.715 -455101.06 42.1157883
  95500     .0955  437320.192  -128191.7 1321.73692 -129513.43 565511.887 -435998.46 44.0578972
  96000      .096  406546.754 -66432.008 1165.27287  -67597.28 472978.762 -405381.48 38.8424289
  96500     .0965  371998.422 -6268.3602  873.72057 -7142.0808 378266.782  -371124.7  29.124019
  97000      .097  337771.449 49934.4973 587.533422 49346.9639 287836.952 -337183.92 19.5844474
  97500     .0975  301149.015 103141.909 332.719178  102809.19 198007.106  -300816.3 11.0906393
  98000      .098  259982.984 153636.991 154.456135 153482.535 106345.993 -259828.53 5.14853782
  98500     .0985  212933.626  200964.39 194.804502 200769.585 11969.2361 -212738.82  6.4934834
  99000      .099  152769.374 252229.728 340.126052 251889.602 -99460.355 -152429.25 11.3375351
  99500     .0995  88027.3171 301203.792   395.3216  300808.47 -213176.47 -87631.996 13.1773867
 100000       0.1  26541.6557 342033.255 417.616414 341615.638  -315491.6 -26124.039 13.9205471
 100500     .1005  -29662.871 373021.194 492.089099 372529.105 -402684.07 30154.9605   16.40297
 101000      .101  -83169.455 396069.493 637.412099 395432.081 -479238.95 83806.8668   21.24707
 101500     .1015  -134505.35 411611.344 887.190344 410724.154 -546116.69 135392.538 29.5730115
 102000      .102  -185922.66 422033.398 1205.94044 420827.457 -607956.06 187128.604 40.1980145
 102500     .1025  -242098.03 431819.064 1424.83697 430394.227 -673917.09 243522.868 47.4945657
 103000      .103  -294587.52 434891.502 1454.25395 433437.248 -729479.02 296041.773 48.4751317
 103500     .1035  -336651.36  427190.14 1403.07955 425787.061  -763841.5 338054.436 46.7693182
 104000      .104  -368348.04 408566.014 1376.71199 407189.302 -776914.06 369724.757 45.8903995
 104500     .1045  -392344.86 382177.485  1362.0219 380815.463 -774522.34 393706.877 45.4007299
 105000      .105  -409036.47 348440.137 1381.50057 347058.637 -757476.61 410417.974 46.0500192
 105500     .1055    -423281. 311895.802 1429.05789 310466.744  -735176.8 424710.058 47.6352629
 106000      .106  -436633.17 275134.582 1431.63546 273702.946 -711767.75 438064.801 47.7211818
 106500     .1065  -441468.14 233561.596 1341.04842 232220.547 -675029.73 442809.184  44.701614
 107000      .107  -433333.03 184619.918 1245.95342 183373.964 -617952.95 434578.986 41.5317807
 107500     .1075  -414182.58 129531.165 1224.14165 128307.023 -543713.74 415406.721 40.8047217
 108000      .108  -387424.97 71822.7141 1246.99935 70575.7148 -459247.69 388671.974  41.566645
 108500     .1085   -354070.1 12124.1289 1346.06076 10778.0682 -366194.23 355416.164 44.8686919
 109000      .109  -320531.73 -43598.679 1487.55428 -45086.233 -276933.05 322019.282 49.5851428
 109500     .1095  -285772.79 -94489.455 1541.31271 -96030.768 -191283.34 287314.106 51.3770902
 110000       .11  -244011.46 -144663.01 1465.31277 -146128.33 -99348.441 245476.769 48.8437591
 110500     .1105  -193198.53 -195797.42 1369.22877 -197166.65 2598.88917 194567.759 45.6409589
 111000      .111  -136483.07 -245886.24 1317.42089 -247203.66  109403.17 137800.491 43.9140297
 111500     .1115  -77563.271 -292009.42 1287.50739 -293296.93 214446.148 78850.7786 42.9169129
 112000      .112  -18112.754  -333421.6 1299.15547 -334720.76 315308.849 19411.9093 43.3051825
 112500     .1125  35313.6991 -364608.83 1294.58356 -365903.41 399922.528 -34019.116 43.1527853
 113000      .113  85293.1282 -386910.98 1166.65551 -388077.63 472204.104 -84126.473  38.888517
 113500     .1135  136537.966 -404371.48 957.704373 -405329.19  540909.45 -135580.26 31.9234791
 114000      .114  189825.478 -418152.93 785.071004   -418938. 607978.407 -189040.41 26.1690335
 114500     .1145   241591.47 -426380.26 674.704515 -427054.96 667971.725 -240916.77 22.4901505
 115000      .115    288765.8 -427607.51 615.765268 -428223.28 716373.314 -288150.03 20.5255089
 115500     .1155   329245.21 -421119.49  619.54017 -421739.03 750364.697 -328625.67  20.651339
 116000      .116  358123.006 -403173.97 622.378426 -403796.35 761296.978 -357500.63 20.7459475
 116500     .1165  379385.596 -376880.12 535.645955 -377415.77 756265.718 -378849.95 17.8548652
 117000      .117  397627.556 -346328.87 407.970279 -346736.84 743956.431 -397219.59 13.5990093
 117500     .1175  412971.742 -312755.62 322.335378 -313077.95 725727.361 -412649.41 10.7445126
 118000      .118  422211.744 -274840.05 286.313226 -275126.36 697051.792 -421925.43  9.5437742
 118500     .1185  423790.833 -232563.82 303.590555 -232867.41 656354.649 -423487.24 10.1196852
 119000      .119  415537.801 -185047.78  366.36868 -185414.14 600585.576 -415171.43 12.2122893
 119500     .1195   395255.19  -130621.5 397.817715 -131019.32 525876.693 -394857.37 13.2605905
 120000       .12  368028.698 -73489.599 331.191482 -73820.791 441518.298 -367697.51 11.0397161
 120500     .1205  338374.198 -17582.169  230.07685 -17812.246 355956.367 -338144.12 7.66922834
 121000      .121  306223.482 36056.4798 178.473955 35878.0058 270167.002 -306045.01 5.94913185
 121500     .1215  269301.399 88619.3704  179.19118 88440.1792 180682.029 -269122.21 5.97303933
 122000      .122  227466.731 139423.049 235.518069 139187.531 88043.6821 -227231.21 7.85060229
 122500     .1225  178520.232 189865.855 327.612821 189538.242 -11345.622 -178192.62 10.9204274
 123000      .123  122834.038 240112.844 380.545876 239732.298 -117278.81 -122453.49 12.6848625
 123500     .1235  65994.1547 285949.021 360.152515 285588.868 -219954.87 -65634.002 12.0050838
 124000      .124  12005.6851 324347.126 336.892864 324010.233 -312341.44 -11668.792 11.2297621
 124500     .1245  -39461.546 355181.583 370.859393 354810.724 -394643.13 39832.4058 12.3619798
 125000      .125  -90112.451 379929.657 446.298454 379483.358 -470042.11 90558.7498 14.8766151
 125500     .1255  -139633.95 398173.561 565.024959 397608.536 -537807.51  140198.97 18.8341653
 126000      .126  -190323.57 412169.604 700.740899 411468.863 -602493.17 191024.306   23.35803
 126500     .1265  -240246.78 421490.908 777.418145  420713.49 -661737.69 241024.201 25.9139382
 127000      .127   -284233.4 422756.695 783.065404 421973.629  -706990.1 285016.466 26.1021801
  % % % % % %   Suspended simulation;  plot data space exhausted;  SPY SPACE is required.   LIMBUF =  340000.
  % % % % % %   Suspended simulation;  plot data space exhausted;  SPY SPACE is required.   LIMBUF =  340000.
  +++  Time-sharing disabled.   Send  user-keyed interrupt to silence alarm.
   Current values.  INDBUF  INDBEG  LIMBUF  MFLUSH  NUMDCD  KCARD1  KCARD2
                    339994      50  340000    1002      46       1      50
Plot timespan now in memory (in sec) = 8.49839970E-02   1.27477000E-01
   ++++  Begin plot-data copy from memory to disk.   MFLUSH, INDBUF, N4, Tbeg,  Tend = 1003  339994       1  -1.00000E+00
1.00000E+19
 127500     .1275  -319577.39  414349.34 787.434948 413561.905 -733926.73 320364.826 26.2478316
 128000      .128  -347451.34 397419.733 830.166583 396589.566 -744871.07 348281.503 27.6722194
 128500     .1285  -369596.68 373881.829 898.447137 372983.381 -743478.51 370495.128 29.9482379
 129000      .129  -386242.17 344324.804 995.942395 343328.861 -730566.98 387238.114 33.1980798
 129500     .1295  -399875.26 311678.405 1088.24339 310590.161 -711553.66 400963.499 36.2747796
 130000       .13  -408209.16 275365.751 1107.48082  274258.27 -683574.91 409316.641 36.9160273
 130500     .1305  -407247.84 233067.699 1067.98041 231999.719 -640315.54  408315.82  35.599347
 131000      .131  -396032.34 184508.924 1041.21507 183467.709 -580541.26  397073.55 34.7071689
 131500     .1315  -376866.47 131897.376 1049.78051 130847.596 -508763.85 377916.255 34.9926838
 132000      .132  -351766.67 77278.5977 1082.48142 76196.1163 -429045.27 352849.152 36.0827139
 132500     .1325  -322073.32  22150.925 1134.61298  21016.312 -344224.25 323207.938 37.8204327
 133000      .133  -290286.48 -30664.429 1165.34455 -31829.774 -259622.05 291451.823 38.8448183
 133500     .1335  -254320.82 -82007.934 1123.26092 -83131.195 -172312.89 255444.086 37.4420305
 134000      .134   -211483.5 -133527.06 1039.24749  -134566.3  -77956.44 212522.745 34.6415832
 134500     .1345   -162352.4 -184804.81 976.613161 -185781.42  22452.408 163329.011  32.553772
 135000      .135  -110040.25  -233386.9 942.204313 -234329.11 123346.649 110982.456 31.4068104
 135500     .1355  -56584.495 -277770.59 927.684761 -278698.28 221186.097 57512.1795 30.9228254
 136000      .136  -4192.5385 -316237.74 924.223734 -317161.96 312045.197 5116.76228 30.8074578
 136500     .1365  45260.5512 -346966.87 889.618822 -347856.48 392227.417 -44370.932 29.6539607
 137000      .137  93849.6625 -371490.11  790.03079 -372280.14 465339.775 -93059.632 26.3343597
 137500     .1375  143397.558 -391450.68 667.283007 -392117.96 534848.239 -142730.28 22.2427669
 138000      .138  192555.404 -406503.37 576.878283 -407080.25 599058.773 -191978.53 19.2292761
 138500     .1385  238255.087 -414779.44 518.032215 -415297.47 653034.528 -237737.06 17.2677405
 139000      .139  279018.509 -415789.57 485.023683 -416274.59 694808.075 -278533.49 16.1674561
 139500     .1395  312622.419 -408275.17 464.296161 -408739.47 720897.592 -312158.12 15.4765387
 140000       .14  338503.654 -391932.03 411.364508  -392343.4 730435.686 -338092.29 13.7121503
 140500     .1405  359196.849 -369203.07 309.022705 -369512.09 728399.916 -358887.83 10.3007568
 141000      .141  376301.219 -342052.23 206.092631 -342258.32  718353.45 -376095.13 6.86975437
 141500     .1415  388538.761 -310505.13 145.703344 -310650.83 699043.888 -388393.06 4.85677812
 142000      .142   393697.57 -273621.89 119.764018 -273741.65 667319.459 -393577.81 3.99213392
 142500     .1425  391227.131 -231822.46 121.162611 -231943.62 623049.587 -391105.97 4.03875369
 143000      .143  379660.097 -184502.78 131.291864 -184634.07 564162.879 -379528.81 4.37639546
 143500     .1435  360002.295 -132686.84 107.068136 -132793.91 492689.133 -359895.23 3.56893787
 144000      .144   335445.16 -79356.725 46.6443262  -79403.37 414801.886 -335398.52 1.55481087
 144500     .1445  307673.681 -26516.933 .415370091 -26517.349 334190.614 -307673.27  .01384567
 145000      .145  275813.484 25730.5558 -2.9199827 25733.4757 250082.928  -275816.4 -.09733276
 145500     .1455  238746.687 77703.6721 25.7145283 77677.9576 161043.015 -238720.97 .857150944
 146000      .146  196666.765 128764.905 78.4874342 128686.418 67901.8601 -196588.28 2.61624781
 146500     .1465  149054.134 179230.819  132.76346 179098.056 -30176.685 -148921.37 4.42544867
 147000      .147  98085.5015 227518.207 150.329044 227367.878 -129432.71 -97935.172 5.01096813
 147500     .1475  47208.6395 270895.189 141.207796 270753.982 -223686.55 -47067.432 4.70692653
 148000      .148  -2090.3059 307968.169 153.362865 307814.806 -310058.48 2243.66876  5.1120955
 148500     .1485  -50566.173 339167.355 202.668815 338964.687 -389733.53 50768.8417 6.75562716
 149000      .149  -98653.592 364850.593 277.318861 364573.274 -463504.18 98930.9108 9.24396202
 149500     .1495  -146087.18    384972. 367.103178 384604.896 -531059.18 146454.284 12.2367726
 150000       .15  -192863.11 400082.404 445.334354  399637.07 -592945.52 193308.447 14.8444785
 150500     .1505  -236488.17 408844.657 481.713473 408362.944 -645332.83 236969.887 16.0571158
 151000      .151   -274045.2 409466.824 495.705805 408971.118 -683512.02 274540.903 16.5235268
 151500     .1515  -304848.57 401679.221  530.37071 401148.851 -706527.79 305378.937 17.6790237
 152000      .152  -330082.79 386815.798 591.181586 386224.617 -716898.59 330673.971 19.7060529
 152500     .1525  -350205.62 365718.884 666.368917 365052.515  -715924.5 350871.986 22.2122972
 153000      .153  -365575.23  339287.19 744.443446 338542.746 -704862.42 366319.677 24.8147815
 153500     .1535  -376239.74 308483.269 797.683159 307685.586 -684723.01 377037.426 26.5894386
 154000      .154  -380162.06 272541.185 806.392025 271734.793 -652703.25 380968.457 26.8797342
 154500     .1545  -375578.14 230734.364 797.465779 229936.898 -606312.51 376375.611 26.5821926
 155000      .155   -362996.1 183863.004 807.331467 183055.672 -546859.11 363803.434 26.9110489
 155500     .1555  -344309.41 133926.812 834.551231 133092.261 -478236.22 345143.957 27.8183744
 156000      .156  -320435.24  82140.288 868.547414 81271.7406 -402575.53 321303.792 28.9515805
 156500     .1565   -292543.8 30011.5441 897.376936 29114.1671 -322555.35 293441.182 29.9125645
 157000      .157  -260938.86 -21453.851 894.187698 -22348.039 -239485.01 261833.049 29.8062566
 157500     .1575  -224275.94 -72755.682 849.980085 -73605.662 -151520.26  225125.92 28.3326695
 158000      .158  -181971.01 -124047.32 796.673939 -124843.99 -57923.693 182767.686  26.555798
 158500     .1585  -135538.44 -174071.32 762.978516  -174834.3 38532.8793 136301.421 25.4326172
 159000      .159  -87276.354 -220894.22 743.409596 -221637.63 133617.863 88019.7639 24.7803199
 159500     .1595  -38420.679 -263477.78 728.458099 -264206.24 225057.101 39149.1376 24.2819366
 160000       .16  9506.43601 -300478.17 705.469288 -301183.64 309984.607 -8800.9667 23.5156429
 160500     .1605  56275.2735  -331505.4 650.507252  -332155.9 387780.669 -55624.766 21.6835751
 161000      .161  102894.833  -357384.5  564.69373 -357949.19  460279.33 -102330.14 18.8231243
 161500     .1615   149325.29 -378394.42 482.337752 -378876.76 527719.708 -148842.95 16.0779251
 162000      .162  193734.097 -393556.53 423.843717 -393980.37 587290.628 -193310.25 14.1281239
 162500     .1625  234132.885 -401727.44 381.429409 -402108.86  635860.32 -233751.46 12.7143136
 163000      .163  269509.299 -402559.18 346.208987 -402905.39 672068.477 -269163.09 11.5402996
 163500     .1635  298766.216  -395515.7 304.517435 -395820.22 694281.915  -298461.7 10.1505812
 164000      .164  322316.043 -381241.36 236.724479 -381478.08   703557.4 -322079.32 7.89081596
 164500     .1645  341397.064 -361220.37 151.905309 -361372.28 702617.435 -341245.16 5.06351031
 165000      .165  356032.805 -336217.03 83.2943193 -336300.32 692249.834 -355949.51 2.77647731
 165500     .1655  364792.346 -305871.55 42.8880253 -305914.44 670663.899 -364749.46 1.42960084
 166000      .166  366607.449 -270034.46 21.3157469 -270055.78 636641.911 -366586.13 .710524897
 166500     .1665   361148.09 -229081.11 9.50959168 -229090.61 590229.195 -361138.58 .316986389
 167000      .167  348275.136 -183345.99 -7.7030449 -183338.29 531621.129 -348282.84 -.25676816
 167500     .1675  329334.253 -134328.97 -45.258471 -134283.71  463663.22 -329379.51 -1.5086157
 168000      .168  306041.426 -83931.863 -88.541544 -83843.321 389973.289 -306129.97 -2.9513848
 168500     .1685  278781.343 -33156.644 -108.11563 -33048.528 311937.987 -278889.46 -3.6038542
 169000      .169  246794.053 17999.9749 -99.533594 18099.5085 228794.078 -246893.59 -3.3177865
 169500     .1695  209987.399 69136.6129 -73.390164 69210.0031 140850.786 -210060.79 -2.4463388
  % % % % % %   Suspended simulation;  plot data space exhausted;  SPY SPACE is required.   LIMBUF =  340000.
  % % % % % %   Suspended simulation;  plot data space exhausted;  SPY SPACE is required.   LIMBUF =  340000.
  +++  Time-sharing disabled.   Send  user-keyed interrupt to silence alarm.
   Current values.  INDBUF  INDBEG  LIMBUF  MFLUSH  NUMDCD  KCARD1  KCARD2
                    339994      50  340000    1003      46       1      50
Plot timespan now in memory (in sec) = 1.27476007E-01   1.69969000E-01
   ++++  Begin plot-data copy from memory to disk.   MFLUSH, INDBUF, N4, Tbeg,  Tend = 1004  339994       1  -1.00000E+00
1.00000E+19
 170000       .17  168688.213 119658.036 -39.422741 119697.459 49030.1772 -168727.64 -1.3140914
 170500     .1705  123635.721 168875.274 -13.906831 168889.181 -45239.553 -123649.63 -.46356104
 171000      .171  76824.2104 215118.832 -6.7008733 215125.533 -138294.62 -76830.911 -.22336244
 171500     .1715  30139.2737 256741.648 .470756806 256741.177 -226602.37 -30138.803 .015691894
 172000      .172  -15953.097 293145.217 31.5153641 293113.702 -309098.31 15984.6125 1.05051214
 172500     .1725   -61850.19 324573.484 84.8451348 324488.639 -386423.67 61935.0354 2.82817116
 173000      .173  -107200.13 350810.967 149.247962 350661.719 -458011.09 107349.373 4.97493207
 173500     .1735  -151520.74 371705.052 214.401569  371490.65 -523225.79 151735.138 7.14671896
 174000      .174  -193786.57 386872.736 264.175572 386608.561 -580659.31 194050.746  8.8058524
 174500     .1745  -232056.07 395188.785 294.060981 394894.724 -627244.86 232350.134 9.80203269
 175000      .175  -264921.45  395867.85 324.527969 395543.322  -660789.3 265245.982  10.817599
 175500     .1755  -292416.82 389221.761 373.485862 388848.276 -681638.58 292790.303 12.4495287
 176000      .176  -315141.96 376146.219 435.441395 375710.778 -691288.18 315577.397 14.5147132
 176500     .1765  -333011.62  357084.33 499.569541  356584.76 -690095.95 333511.193  16.652318
 177000      .177  -345964.29 332631.191 555.484065 332075.707 -678595.48 346519.778 18.5161355
 177500     .1775  -353319.01 302989.639 588.925083 302400.714 -656308.65 353907.936 19.6308361
 178000      .178  -353815.67 267820.728 601.000395 267219.728  -621636.4 354416.673 20.0333465
 178500     .1785  -347013.04 227287.397 613.327413  226674.07 -574300.44 347626.365 20.4442471
 179000      .179  -333812.66 182561.513 638.368303 181923.144 -516374.17 334451.027 21.2789434
 179500     .1795  -315335.46 135052.953 668.743787 134384.209 -450388.41   316004.2 22.2914596
 180000       .18  -292123.59 85733.0933 694.871111 85038.2222 -377856.69 292818.464 23.1623704
 180500     .1805  -264719.96 35644.7497 706.888783 34937.8609 -300364.71 265426.851 23.5629594
 181000      .181  -232982.38  -14730.54 693.880591 -15424.421 -218251.84  233676.26  23.129353
 181500     .1815  -196453.91 -65310.752 662.336032 -65973.088 -131143.16 197116.248 22.0778677
 182000      .182  -155609.07  -115476.7 633.777184 -116110.48 -40132.372 156242.847 21.1259061
 182500     .1825  -112030.27  -163796.6 615.954077 -164412.56 51766.3362  112646.22 20.5318026
 183000      .183  -67149.913 -208954.19  600.89767 -209555.09 141804.275 67750.8106 20.0299223
 183500     .1835  -21906.094 -250049.36 580.552369 -250629.91 228143.265 22486.6462 19.3517456
 184000      .184  22918.6977 -286277.28 545.872971 -286823.16 309195.981 -22372.825 18.1957657
 184500     .1845  67279.8031 -317507.55 489.883936 -317997.44 384787.356 -66789.919 16.3294645
 185000      .185  111255.667 -343882.67 423.437754  -344306.1 455138.333 -110832.23 14.1145918
 185500     .1855  154009.949 -365016.05 366.430989 -365382.48 519025.995 -153643.52 12.2143663
 186000      .186  193918.944   -379935. 322.469666 -380257.47 573853.941 -193596.47 10.7489889
 186500     .1865  229820.407 -388035.99 283.482336 -388319.48   617856.4 -229536.92 9.44941119
 187000      .187  260984.018 -389067.25 242.520505 -389309.77 650051.265  -260741.5 8.08401685
 187500     .1875  287020.026 -383015.09 191.243582 -383206.33 670035.111 -286828.78 6.37478608
 188000      .188   308267.66 -370532.74 126.335641 -370659.08 678800.403 -308141.32 4.21118802
 188500     .1885  325020.772 -352380.72 61.3770928 -352442.09 677401.489  -324959.4 2.04590309
 189000      .189   336718.51 -328766.03   13.04916 -328779.08 665484.538 -336705.46 .434971999
 189500     .1895  342331.139  -299493.9 -18.873434 -299475.03 641825.043 -342350.01 -.62911446
 190000       .19  341457.425 -264826.13 -42.649306 -264783.48 606283.557 -341500.07 -1.4216435
 190500     .1905  334052.759 -225253.25 -64.915095 -225188.34 559306.011 -334117.67 -2.1638365
 191000      .191  320525.052 -181556.28 -93.516206 -181462.76 502081.328 -320618.57 -3.1172069
 191500     .1915  301893.671 -135041.53 -128.80815 -134912.72 436935.196 -302022.48  -4.293605
 192000      .192  278940.768 -86906.948 -156.26205 -86750.686 365847.716 -279097.03 -5.2087351
 192500     .1925  251631.112 -37726.776 -163.54532  -37563.23 289357.888 -251794.66 -5.4515108
 193000      .193  219707.776 12203.6535 -154.28766 12357.9412 207504.122 -219862.06 -5.1429221
 193500     .1935  183534.383 62193.9091 -136.99396 62330.9031 121340.474 -183671.38 -4.5664654
 194000      .194  143724.939 111472.758 -118.52441 111591.283 32252.1804 -143843.46 -3.9508136
 194500     .1945  101344.845 159005.915 -106.11874 159112.034 -57661.071 -101450.96 -3.5372915
 195000      .195  57849.3864 203452.048 -97.726565 203549.775 -145602.66 -57947.113 -3.2575522
 195500     .1955  14243.4521 243794.915 -79.217825 243874.133 -229551.46  -14322.67 -2.6405942
 196000      .196  -29272.933 279703.624 -42.827004 279746.451 -308976.56 29230.1059 -1.4275668
 196500     .1965   -72556.59  311027.67 5.27443307 311022.395 -383584.26 72561.8644 .175814436
 197000      .197   -114976.2 337344.413 56.6542468 337287.759 -452320.61 115032.855 1.88847489
 197500     .1975  -155760.05  358253.23 104.311549 358148.919 -514013.28 155864.357 3.47705164
 198000      .198  -193763.66 373133.076 142.196516  372990.88 -566896.73 193905.854 4.73988388
 198500     .1985  -227712.44 381256.486 174.613036 381081.873 -608968.93 227887.055 5.82043453
 199000      .199  -256962.99  382364.81 214.612973 382150.197  -639327.8 257177.607 7.15376576
 199500     .1995  -281634.82 376862.185  266.06141 376596.123   -658497. 281900.882 8.86871368
 200000       0.2  -301781.63 365207.336 321.496064  364885.84 -666988.97 302103.128 10.7165355
 200500     .2005   -317124.9 347674.764 373.214346  347301.55 -664799.66 317498.113 12.4404782
 201000      .201  -327304.59 324562.569 414.704889 324147.864 -651867.16 327719.292 13.8234963
 201500     .2015  -331671.02 295947.813 441.948588 295505.865 -627618.84 332112.971 14.7316196
 202000      .202  -329655.39 261915.186 461.556771  261453.63 -591570.58  330116.95 15.3852257
 202500     .2025  -321404.37 223046.376 485.289054 222561.087 -544450.74 321889.658 16.1763018
 203000      .203  -307697.66 180445.311 514.211028   179931.1 -488142.98 308211.876 17.1403676
 203500     .2035  -289122.51 135103.351 540.828205 134562.523 -424225.86 289663.335 18.0276068
 204000      .204  -266026.39 87837.6983 558.774852 87278.9234 -353864.09 266585.169 18.6258284
 204500     .2045  -238648.31 39393.2405 562.731931 38830.5086 -278041.55  239211.04  18.757731
 205000      .205  -206974.64 -9753.4098 551.313482 -10304.723 -197221.23 207525.949 18.3771161
 205500     .2055  -171184.91 -59090.548   533.2409 -59623.789 -112094.36 171718.146 17.7746967
 206000      .206  -132138.92 -107674.22 518.800956 -108193.02   -24464.7 132657.719 17.2933652
 206500     .2065  -91103.727  -154257.7 507.193394  -154764.9 63153.9771   91610.92 16.9064465
 207000      .207  -49016.127 -197872.32  491.66749 -198363.99 148856.195 49507.7943 16.3889163
 207500     .2075  -6581.2188 -237761.02 467.329517 -238228.35 231179.799 7048.54834 15.5776506
 208000      .208  35696.7082 -273365.76 430.351013 -273796.11 309062.466 -35266.357 14.3450338
 208500     .2085  77566.5595  -304437.5 381.965339 -304819.47 382004.064 -77184.594  12.732178
 209000      .209  118553.313  -330690.4 332.250386 -331022.65 449243.713 -118221.06 11.0750129
 209500     .2095  157617.884 -351492.62 289.585469  -351782.2 509110.499  -157328.3 9.65284896
 210000       .21  193578.292 -366120.61 251.730247 -366372.34 559698.906 -193326.56 8.39100823
 210500     .2105  225690.984 -374222.03 212.772457  -374434.8 599913.016 -225478.21 7.09241524
 211000      .211  253474.179 -375673.22 168.872993 -375842.09 629147.396 -253305.31 5.62909978
 211500     .2115    276736.4 -370621.88 117.465267 -370739.35 647358.285 -276618.93 3.91550889
 212000      .212  295523.341 -359494.88 61.7727238 -359556.66 655018.225 -295461.57 2.05909079
  % % % % % %   Suspended simulation;  plot data space exhausted;  SPY SPACE is required.   LIMBUF =  340000.
  % % % % % %   Suspended simulation;  plot data space exhausted;  SPY SPACE is required.   LIMBUF =  340000.
  +++  Time-sharing disabled.   Send  user-keyed interrupt to silence alarm.
   Current values.  INDBUF  INDBEG  LIMBUF  MFLUSH  NUMDCD  KCARD1  KCARD2
                    339994      50  340000    1004      46       1      50
Plot timespan now in memory (in sec) = 1.69967994E-01   2.12461000E-01
   ++++  Begin plot-data copy from memory to disk.   MFLUSH, INDBUF, N4, Tbeg,  Tend = 1005  339994       1  -1.00000E+00
1.00000E+19
 212500     .2125   309643.68 -342637.37 12.0207527 -342649.39 652281.052 -309631.66 .400691758
 213000      .213  318466.417 -320090.08  -25.92375 -320064.16 638556.499 -318492.34 -.86412501
 213500     .2135  321433.994 -291929.35 -55.712469 -291873.64 613363.348 -321489.71 -1.8570823
 214000      .214  318452.362   -258581. -82.780747 -258498.21 577033.357 -318535.14 -2.7593582
 214500     .2145  309689.842 -220651.17 -110.57295  -220540.6 530341.016 -309800.41 -3.6857649
 215000      .215  295623.201 -178991.35 -140.86921 -178850.48 474614.555 -295764.07 -4.6956402
 215500     .2155  276883.344 -134611.84 -169.32196 -134442.52 411495.182 -277052.67 -5.6440652
 216000      .216   253812.89 -88332.639  -186.7599 -88145.879 342145.529 -253999.65   -6.22533
 216500     .2165  226393.192 -40654.119 -190.22543 -40463.893 267047.311 -226583.42 -6.3408478
 217000      .217  194790.354  7857.2981  -184.7352 8042.03329 186933.056 -194975.09 -6.1578399
 217500     .2175  159558.522 56399.2836 -175.58827 56574.8719 103159.239 -159734.11 -5.8529424
 218000      .218  121453.357 104087.082 -166.25145 104253.334 17366.2746 -121619.61 -5.5417151
 218500     .2185  81466.2115 149888.959 -157.98913 150046.948 -68422.748 -81624.201 -5.2663045
 219000      .219  40591.9153 192780.084 -145.95476 192926.039 -152188.17  -40737.87 -4.8651588
 219500     .2195  -555.33597 232053.999 -122.73414 232176.733 -232609.33 432.601837 -4.0911379
 220000       .22  -41688.764  267347.61 -88.117267 267435.727 -309036.37  41600.647 -2.9372422
 220500     .2205  -82321.952 298246.865  -48.06295 298294.928 -380568.82 82273.8886 -1.6020983
 221000      .221  -121715.51 324230.197 -7.6827021  324237.88 -445945.71 121707.826 -.25609007
 221500     .2215  -159023.55 344777.539 29.6530732 344747.886 -503801.09 159053.204 .988435772
 222000      .222  -193285.67 359319.244 63.3738085  359255.87 -552604.91  193349.04 2.11246028
 222500     .2225  -223701.78 367424.404 98.6597979 367325.745 -591126.18 223800.439 3.28865993
 223000      .223  -249934.87 369053.931 141.134513 368912.797  -618988.8 250076.001 4.70448375
 223500     .2235  -271937.04 364477.536 189.005004 364288.531 -636414.58 272126.048 6.30016679
 224000      .224  -289481.36 353904.622 236.177982 353668.444 -643385.98 289717.535  7.8725994
 224500     .2245  -302206.92  337502.01 278.171045 337223.839 -639708.93 302485.087 9.27236816
 225000      .225  -309714.49 315448.914 312.253194 315136.661  -625163.4  310026.74 10.4084398
 225500     .2255  -311589.22  287908.69  339.02571 287569.664 -599497.91 311928.249  11.300857
 226000      .226  -307683.03 255225.538 364.126619 254861.411 -562908.56 308047.153  12.137554
 226500     .2265  -298320.96 218108.836 391.778046 217717.058  -516429.8 298712.738 13.0592682
 227000      .227  -284023.74 177455.324 419.164272 177036.159 -461479.06   284442.9 13.9721424
 227500     .2275  -265126.49 134035.896 440.900954 133594.995 -399162.39 265567.392 14.6966985
 228000      .228  -241875.07 88555.1728 453.623786  88101.549 -330430.24 242328.696 15.1207929
 228500     .2285  -214475.81 41662.6596 455.787985 41206.8716 -256138.47 214931.596 15.1929328
 229000      .229  -183151.14 -6043.1213 449.524712  -6492.646 -177108.02 183600.666 14.9841571
 229500     .2295  -148404.93 -53822.385 440.943263 -54263.328  -94582.55 148845.878 14.6981088
 230000       .23  -111129.75 -100677.66 433.217928 -101110.88 -10452.088  111562.97 14.4405976
 230500     .2305  -72259.196 -145595.73 423.246039 -146018.97 73336.5309 72682.4422 14.1082013
 231000      .231  -32491.241 -187780.51 406.798826 -188187.31 155289.267 32898.0398 13.5599609
 231500     .2315  7596.03248 -226572.12 381.770885 -226953.89  234168.15 -7214.2616 12.7256962
 232000      .232  47522.2298  -261456.6 347.946009 -261804.55 308978.829 -47174.284 11.5982003
 232500     .2325  86813.4834 -292021.46 308.863216 -292330.33 378834.947  -86504.62 10.2954405
 233000      .233  124765.375 -317770.86 270.713503 -318041.57 442536.233 -124494.66 9.02378343
 233500     .2335   160426.34 -338069.88 235.625473 -338305.51 498496.224 -160190.71 7.85418243
 234000      .234  192970.406 -352411.47 200.431536  -352611.9 545381.876 -192769.97 6.68105119
 234500     .2345  221863.101 -360557.21 161.927696 -360719.13 582420.308 -221701.17 5.39758987
 235000      .235  246742.145 -362446.99 118.930335 -362565.92 609189.131 -246623.22 3.96434451
 235500     .2355  267399.402  -358206.3 72.1973607  -358278.5 625605.702  -267327.2 2.40657869
 236000      .236  283653.846 -348060.62 26.0545917 -348086.68 631714.469 -283627.79 .868486389
 236500     .2365  295146.022 -332160.17 -13.961891 -332146.21 627306.195 -295159.98 -.46539635
 237000      .237  301397.869 -310578.42 -47.068174 -310531.35 611976.289 -301444.94 -1.5689391
 237500     .2375  302165.903 -283569.29  -76.67269 -283492.62 585735.196 -302242.58 -2.5557563
 238000      .238  297503.933 -251621.56 -105.45535  -251516.1 549125.488 -297609.39 -3.5151784
 238500     .2385  287647.557 -215369.49 -134.25584 -215235.24 503017.049 -287781.81 -4.4751945
 239000      .239  272982.053  -175584.4  -161.9171 -175422.48  448566.45 -273143.97 -5.3972366
 239500     .2395  253886.308 -133057.94 -184.11245 -132873.83  386944.25 -254070.42 -6.1370817
 240000       .24  230562.815 -88445.163 -196.67668 -88248.486 319007.978 -230759.49 -6.5558892
 240500     .2405  203159.975 -42314.937 -200.42349 -42114.514 245474.912  -203360.4  -6.680783
 241000      .241  172073.778 4623.80044 -199.19021 4822.99065 167449.977 -172272.97 -6.6396737
 241500     .2415  137928.968 51532.3518 -195.56715  51727.919 86396.6158 -138124.53 -6.5189051
 242000      .242  101473.776  97518.715 -190.45156 97709.1665  3955.0607 -101664.23 -6.3483854
 242500     .2425  63527.4811 141662.305 -182.66462  141844.97 -78134.824 -63710.146 -6.0888206
 243000      .243  24810.9896 183142.842 -168.39641 183311.238 -158331.85 -24979.386 -5.6132136
 243500     .2435  -14178.286 221364.184  -145.1469 221509.331 -235542.47 14033.1388 -4.8382301
 244000      .244  -52992.963 255852.431 -115.18555 255967.616 -308845.39 52877.7771 -3.8395183
 244500     .2445  -90999.486 286068.621 -82.635908 286151.257 -377068.11 90916.8501 -2.7545303
 245000      .245  -127447.71 311454.374 -50.031016 311504.405 -438902.08  127397.68 -1.6677005
 245500     .2455  -161558.37 331485.474 -18.277507 331503.751 -493043.84 161540.091 -.60925023
 246000      .246  -192590.92 345705.639 13.8798459 345691.759 -538296.56 192604.797  .46266153
 246500     .2465  -220005.97 353848.378 49.6954827 353798.682 -573854.35 220055.666 1.65651609
 247000      .247  -243533.54 355913.332 90.2619529  355823.07 -599446.88 243623.807 3.00873176
 247500     .2475  -262959.98 352018.701 132.452971 351886.248 -614978.68  263092.43 4.41509905
 248000      .248  -277956.86 342254.013 172.366582 342081.646 -620210.88  278129.23 5.74555274
 248500     .2485  -288170.87 326736.033 207.891133 326528.142  -614906.9 288378.759 6.92970442
 249000      .249  -293288.42  305637.23 238.532078 305398.698 -598925.65 293526.953 7.95106927
 249500     .2495  -293109.86 279222.732 265.985373 278956.746  -572332.6  293375.85  8.8661791
 250000       .25  -287687.82 247953.772 293.237367 247660.535 -535641.59 287981.053  9.7745789
 250500     .2505  -277331.38 212511.144 320.548983 212190.595 -489842.52 277651.929 10.6849661
 251000      .251  -262370.09 173618.016 344.711661 173273.304  -435988.1 262714.798 11.4903887
 251500     .2515  -243041.82 131934.211 362.627559 131571.583 -374976.03 243404.443 12.0875853
 252000      .252  -219581.92 88109.6254 373.044701 87736.5807 -307691.55 219954.968 12.4348234
 252500     .2525  -192267.65 42795.9295 376.315218 42419.6143 -235063.58 192643.967 12.5438406
 253000      .253  -161492.96  -3312.423 374.877665 -3687.3007 -158180.54 161867.841 12.4959222
 253500     .2535  -127875.18  -49393.72 371.687394 -49765.407 -78481.457 128246.864 12.3895798
 254000      .254  -92198.994 -94521.866 366.651303 -94888.517 2322.87124 92565.6457 12.2217101
 254500     .2545  -55180.869 -137848.28 357.014136 -138205.29 82667.4102 55537.8833 11.9004712
  % % % % % %   Suspended simulation;  plot data space exhausted;  SPY SPACE is required.   LIMBUF =  340000.
  % % % % % %   Suspended simulation;  plot data space exhausted;  SPY SPACE is required.   LIMBUF =  340000.
  +++  Time-sharing disabled.   Send  user-keyed interrupt to silence alarm.
   Current values.  INDBUF  INDBEG  LIMBUF  MFLUSH  NUMDCD  KCARD1  KCARD2
                    339994      50  340000    1005      46       1      50
Plot timespan now in memory (in sec) = 2.12459996E-01   2.54953000E-01
   ++++  Begin plot-data copy from memory to disk.   MFLUSH, INDBUF, N4, Tbeg,  Tend = 1006  339994       1  -1.00000E+00
1.00000E+19
 255000      .255   -17410.61 -178662.66 340.758897 -179003.42 161252.048 17751.3691 11.3586299
 255500     .2555  20567.6067 -216342.58 317.630377 -216660.21 236910.188 -20249.976 10.5876792
 256000      .256   58220.647 -250343.52 288.912245 -250632.44 308564.171 -57931.735 9.63040816
 256500     .2565  94950.1736 -280147.98 257.699368 -280405.68 375098.154 -94692.474 8.58997893
 257000      .257  130015.948 -305194.21 226.806934 -305421.02 435210.157 -129789.14 7.56023115
 257500     .2575  162637.264 -324931.33  195.88069 -325127.22 487568.599 -162441.38 6.52935634
 258000      .258  192202.241 -338980.46  162.67692 -339143.13 531182.698 -192039.56 5.42256401
 258500     .2585  218276.302 -347149.15 126.060006 -347275.21 565425.456 -218150.24 4.20200019
 259000      .259  240526.927 -349379.64 86.4722618 -349466.11 589906.565 -240440.46 2.88240873
 259500     .2595  258685.683 -345727.42 45.7738338 -345773.19 604413.098 -258639.91 1.52579446
 260000       .26  272467.143 -336296.63 7.21549879 -336303.85 608763.773 -272459.93 .240516626
 260500     .2605  281516.707 -321178.34 -26.969002 -321151.37 602695.045 -281543.68 -.89896674
 261000      .261  285538.236 -300524.41 -57.641325 -300466.77  586062.65 -285595.88 -1.9213775
 261500     .2615  284456.947 -274671.59 -86.845505 -274584.75 559128.539 -284543.79 -2.8948502
 262000      .262  278384.278 -244116.15 -115.34043 -244000.81 522500.431 -278499.62  -3.844681
 262500     .2625  267544.289  -209459.5 -142.51849 -209316.98 477003.787 -267686.81 -4.7506165
 263000      .263  252224.184  -171371.9 -166.49625  -171205.4 423596.082 -252390.68 -5.5498751
 263500     .2635  232688.619 -130517.97 -184.49013 -130333.48 363206.591 -232873.11 -6.1496709
 264000      .264  209150.017 -87508.495 -195.31529 -87313.179 296658.511 -209345.33 -6.5105095
 264500     .2645  181906.447  -42986.19  -200.6062 -42785.584 224892.638 -182107.05 -6.6868734
 265000      .265  151450.822 2289.57168 -202.53278 2492.10446  149161.25 -151653.35 -6.7510926
 265500     .2655   118404.73 47492.4536 -201.90771 47694.3613 70912.2765 -118606.64  -6.730257
 266000      .266  83447.0905 91780.6553 -198.34645 91979.0017 -8333.5648 -83645.437 -6.6115485
 266500     .2665  47254.6652 134341.194 -190.31474 134531.509 -87086.529  -47444.98 -6.3438248
 267000      .267  10419.1269 174462.668 -175.85838 174638.527 -164043.54 -10594.985 -5.8619459
 267500     .2675  -26556.087 211559.584 -154.98172 211714.566 -238115.67  26401.105 -5.1660573
 268000      .268  -63116.485 245075.921 -130.04677 245205.968 -308192.41 62986.4384 -4.3348922
 268500     .2685  -98595.043  274431.27 -103.36356 274534.634 -373026.31 98491.6795 -3.4454519
 269000      .269  -132291.54  299075.77 -75.856547 299151.627 -431367.31 132215.681 -2.5285516
 269500     .2695  -163535.82 318530.266 -47.351834 318577.617 -482066.08 163488.464 -1.5783945
 270000       .27  -191748.19 332427.505 -16.633185 332444.138  -524175.7 191731.558 -.55443949
 270500     .2705  -216507.61 340570.067 17.5094839 340552.557 -557077.68 216525.123 .583649463
 271000      .271  -237521.81  342921.67 54.1940294 342867.476 -580443.48 237576.006 1.80646765
 271500     .2715   -254490.7 339501.556  90.764628 339410.792 -593992.26 254581.465  3.0254876
 272000      .272  -267079.46 330350.875 125.116231 330225.759 -597430.33 267204.574 4.17054102
 272500     .2725  -274994.06   315578.8 156.524943 315422.275 -590572.86 275150.582 5.21749811
 273000      .273  -278030.32 295387.078 185.310781 295201.768  -573417.4 278215.635 6.17702603
 273500     .2735  -276125.61 270101.365  212.71018 269888.655 -546226.98 276338.323 7.09033933
 274000      .274  -269402.23  240207.52 239.579688  239967.94 -509609.75 269641.815  7.9859896
 274500     .2745   -258102.8 206309.539 264.723537 206044.815 -464412.34 258367.528 8.82411791
 275000      .275   -242461.2 169022.189   285.7804 168736.408 -411483.39 242746.977 9.52601332
 275500     .2755  -222698.52 128952.584 301.301596 128651.282  -351651.1  222999.82 10.0433865
 276000      .276  -199085.58 86734.2821 311.158462 86423.1237 -285819.86 199396.738 10.3719487
 276500     .2765  -171977.14 43040.4512  316.20035 42724.2509  -215017.6 172293.345 10.5400117
 277000      .277  -141851.38  -1392.618 317.999678 -1710.6177 -140458.76 142169.378 10.5999893
 277500     .2775  -109326.27 -45748.181 317.406407 -46065.588 -63578.085 109643.672 10.5802136
 278000      .278  -75067.735 -89194.046 313.359819 -89507.406 14126.3115 75381.0947 10.4453273
 278500     .2785  -39677.293 -130978.07 304.173864 -131282.25 91300.7816 39981.4667 10.1391288
 279000      .279  -3705.7814 -170429.58 289.267087 -170718.85   166723.8 3995.04845 9.64223623
 279500     .2795  32296.2228 -206930.84 269.240979 -207200.08 239227.065 -32026.982 8.97469929
 280000       .28  67752.5179 -239904.86 245.554938 -240150.42 307657.383 -67506.963  8.1851646
 280500     .2805  102030.079 -268791.59 220.110647  -269011.7 370821.671 -101809.97 7.33702158
 281000      .281   134443.91 -293041.13 193.772848 -293234.91 427485.043 -134250.14 6.45909493
 281500     .2815  164360.735 -312185.78 165.690541 -312351.47 476546.519 -164195.04 5.52301804
 282000      .282  191283.221  -325909.8 134.813473 -326044.62 517193.026 -191148.41 4.49378243
 282500     .2825  214818.298 -334030.27 101.230455  -334131.5 548848.571 -214717.07 3.37434851
 283000      .283  234631.539 -336465.51    66.0168 -336531.52 571097.047 -234565.52    2.20056
 283500     .2835  250420.343 -333214.42 30.9314591 -333245.35 583634.762 -250389.41 1.03104864
 284000      .284  261884.188 -324325.85 -2.1621809 -324323.69 586210.039 -261886.35  -.0720727
 284500     .2845  268742.205  -309895.8 -32.691515 -309863.11 578638.005  -268774.9 -1.0897172
 285000      .285  270832.321 -290133.73 -61.558985 -290072.17 560966.048 -270893.88 -2.0519662
 285500     .2855  268159.566 -265400.29 -89.544733 -265310.75 533559.858 -268249.11 -2.9848244
 286000      .286  260846.809 -236169.26 -116.35504 -236052.91 497016.074 -260963.16 -3.8785013
 286500     .2865  249087.787 -202989.86 -140.91448 -202848.95 452077.651  -249228.7 -4.6971493
 287000      .287  233113.897 -166456.13 -161.65404 -166294.47 399570.023 -233275.55 -5.3884678
 287500     .2875  213163.111 -127170.66 -177.22908 -126993.43 340333.769 -213340.34 -5.9076359
 288000      .288  189505.267 -85746.501  -187.7271 -85558.774 275251.769 -189692.99 -6.2575699
 288500     .2885  162526.718 -42863.922 -194.40859 -42669.513  205390.64 -162721.13 -6.4802862
 289000      .289  132743.829 719.156323 -198.15483 917.311154 132024.672 -132941.98  -6.605161
 289500     .2895  100741.888 44214.7865 -198.86666 44413.6532 56527.1017 -100940.75 -6.6288887
 290000       .29  67127.1752 86843.4687 -195.82248 87039.2911 -19716.293 -67322.998 -6.5274159
 290500     .2905  32489.7261 127867.595 -187.96922 128055.564 -95377.869 -32677.695 -6.2656406
 291000      .291  -2624.6048  166624.11 -174.73591 166798.846 -169248.72 2449.86885 -5.8245305
 291500     .2915  -37679.907 202511.104 -156.97849 202668.083 -240191.01 37522.9281 -5.2326164
 292000      .292  -72081.135 234936.726 -136.35955 235073.086 -307017.86 71944.7751 -4.5453182
 292500     .2925  -105185.38 263323.754 -113.94077 263437.695 -368509.13 105071.439 -3.7980256
 293000      .293  -136363.82 287153.656 -89.880131 287243.536 -423517.47 136273.938 -2.9960044
 293500     .2935  -165044.15 305996.627 -63.806541 306060.434 -471040.78 164980.343 -2.1268847
 294000      .294  -190743.67 319537.568 -35.137244 319572.705 -510281.24 190708.532 -1.1712415
 294500     .2945  -213084.96  327594.31 -3.9353368 327598.245 -540679.27 213081.027 -.13117789
 295000      .295  -231748.49 330086.128 28.4488791 330057.679 -561834.61 231776.935 .948295971
 295500     .2955  -246414.86 326983.578 60.2554189 326923.322 -573398.44 246475.117 2.00851396
 296000      .296  -256787.62 318316.454 90.5057986 318225.948 -575104.07 256878.123 3.01685995
 296500     .2965   -262645.1 304205.039 119.064019 304085.975 -566850.14 262764.165 3.96880063
 297000      .297  -263870.49 284876.109 146.270267 284729.839 -548746.59 264016.756 4.87567556
  % % % % % %   Suspended simulation;  plot data space exhausted;  SPY SPACE is required.   LIMBUF =  340000.
  % % % % % %   Suspended simulation;  plot data space exhausted;  SPY SPACE is required.   LIMBUF =  340000.
  +++  Time-sharing disabled.   Send  user-keyed interrupt to silence alarm.
   Current values.  INDBUF  INDBEG  LIMBUF  MFLUSH  NUMDCD  KCARD1  KCARD2
                    339994      50  340000    1006      46       1      50
Plot timespan now in memory (in sec) = 2.54952013E-01   2.97445000E-01
   ++++  Begin plot-data copy from memory to disk.   MFLUSH, INDBUF, N4, Tbeg,  Tend = 1007  339994       1  -1.00000E+00
1.00000E+19
 297500     .2975  -260472.96 260675.844 172.574943 260503.269 -521148.81 260645.539 5.75249809
 298000      .298  -252584.17 232068.802  197.69063 231871.111 -484652.97 252781.862 6.58968766
 298500     .2985  -240396.48 199589.047 220.261572 199368.786 -439985.53 240616.744 7.34205241
 299000      .299  -224113.79 163791.723 238.887282 163552.836 -387905.51 224352.674  7.9629094
 299500     .2995  -203976.44 125260.326 253.055281  125007.27 -329236.77 204229.498 8.43517604
 300000       0.3  -180298.48  84625.073 263.017299 84362.0557 -264923.55 180561.495 8.76724331
 300500     .3005  -153483.76 42567.6904 269.438589 42298.2518 -196051.45 153753.198 8.98128631
 301000      .301  -124033.79 -175.73258 272.971719  -448.7043 -123858.06 124306.761 9.09905731
 301500     .3015   -92525.24 -42830.578 273.470582 -43104.049 -49694.662 92798.7105 9.11568607
 302000      .302  -59540.042 -84640.362  269.95239 -84910.315 25100.3204 59809.9944   8.998413
 302500     .3025  -25627.117  -124905.9 261.664343 -125167.56 99278.7788 25888.7816 8.72214477
 303000      .303  8671.91978 -162974.66 248.746488  -163223.4 171646.578 -8423.1733  8.2915496
 303500     .3035  42796.6614 -198227.36 231.979568 -198459.34 241024.023 -42564.682 7.73265226
 304000      .304  76159.9186  -230075.1 212.448743 -230287.55 306235.016  -75947.47 7.08162475
 304500     .3045  108147.911 -257957.72 191.062078 -258148.78 366105.627 -107956.85 6.36873594
 305000      .305  138153.888 -281364.43 167.876364 -281532.31 419518.322 -137986.01 5.59587881
 305500     .3055  165644.578 -299884.87 142.316347 -300027.18 465529.444 -165502.26 4.74387824
 306000      .306  190181.172 -313229.78 114.200994 -313343.98 503410.948 -190066.97  3.8066998
 306500     .3065  211388.879 -321210.68 84.1528406 -321294.83 532599.559 -211304.73 2.80509469
 307000      .307  228933.794 -323722.26 53.2714194 -323775.53 552656.055 -228880.52 1.77571398
 307500     .3075  242514.478 -320732.64 22.8085271 -320755.45 563247.123 -242491.67 .760284235
 308000      .308  251862.506 -312275.78 -6.3469885 -312269.43 564138.283 -251868.85 -.21156628
 308500     .3085  256777.515 -298468.68 -34.188755  -298434.5 555246.199  -256811.7 -1.1396252
 309000      .309  257179.124 -279547.67 -61.162684  -279486.5  536726.79 -257240.29 -2.0387561
 309500     .3095  253106.079 -255867.14 -87.240977  -255779.9 508973.221 -253193.32 -2.9080326
 310000       .31  244677.832 -227867.92 -111.73002 -227756.19 472545.755 -244789.56  -3.724334
 310500     .3105  232068.425 -196052.52 -133.62473 -195918.89 428120.943 -232202.05 -4.4541575
 311000      .311  215492.585 -160966.91 -151.92399 -160814.98 376459.491 -215644.51  -5.064133
 311500     .3115  195203.067 -123187.21 -166.14763 -123021.06 318390.274 -195369.21 -5.5382543
 312000      .312  171521.792 -83332.983 -176.67182 -83156.311 254854.775 -171698.46 -5.8890608
 312500     .3125  144872.898 -42088.548 -184.14262 -41904.406 186961.447 -145057.04 -6.1380874
 313000      .313  115762.303 -185.56614 -188.68907 3.12293042 115947.869 -115950.99 -6.2896357
 313500     .3135  84733.7465 41633.7299 -189.90327 41823.6332 43100.0166  -84923.65 -6.3301089
 314000      .314  52340.5262 82642.9745 -187.18895 82830.1635 -30302.448 -52527.715 -6.2396318
 314500     .3145  19128.2621 122151.809  -180.0705 122331.879 -103023.55 -19308.333   -6.00235
 315000      .315  -14367.545 159517.076 -168.67824 159685.754 -173884.62 14198.8668 -5.6226079
 315500     .3155  -47592.815 194127.305 -153.88984 194281.195 -241720.12 47438.9249 -5.1296612
 316000      .316  -79956.815 225388.871 -136.64864  225525.52 -305345.69 79820.1666 -4.5549546
 316500     .3165  -110863.04 252748.065 -117.33901 252865.404  -363611.1 110745.697 -3.9113002
 317000      .317  -139750.72 275722.356 -95.894612 275818.251 -415473.08  139654.83 -3.1964871
 317500     .3175  -166118.77 293919.371 -72.124157 293991.495 -460038.14 166046.647 -2.4041386
 318000      .318  -189538.82 307049.365  -46.01806 307095.383 -496588.18 189492.797 -1.5339353
 318500     .3185  -209649.97 314924.926 -18.174665   314943.1 -524574.89 209631.791 -.60582217
 319000      .319  -226127.38 317436.513 10.2414102 317426.272 -543563.89 226137.622 .341380341
 319500     .3195  -238671.31 314538.169 38.2125189 314499.957 -553209.48  238709.52 1.27375063
 320000       .32  -247037.43 306264.218 65.3196123 306198.898 -553301.65 247102.748 2.17732041
 320500     .3205  -251067.63 292747.527 91.5432082 292655.984 -543815.16 251159.172 3.05144027
 321000      .321  -250702.87 274225.416 116.963352 274108.453 -524928.28  250819.83 3.89877841
 321500     .3215  -245985.45 251039.379 141.451465 250897.928 -497024.83   246126.9 4.71504884
 322000      .322  -237040.69 223619.732  164.32281 223455.409 -460660.42 237205.014   5.477427
 322500     .3225  -224039.98 192451.647 184.533299 192267.114 -416491.63 224224.514 6.15110995
 323000      .323   -207191.6 158058.611 201.365481 157857.245 -365250.21 207392.962 6.71218268
 323500     .3235  -186764.22 121011.498 214.708364  120796.79 -307775.72 186978.931 7.15694548
 324000      .324  -163104.05  81934.607 224.798726 81709.8083 -245038.66 163328.848 7.49329088
 324500     .3245  -136635.54 41501.1068 231.941931 41269.1648 -178136.65 136867.484 7.73139771
 325000      .325  -107852.26 423.249746 236.203142 187.046603 -108275.51  108088.46 7.87343807
 325500     .3255  -77286.998 -40572.824 237.151834 -40809.975 -36714.174 77524.1497 7.90506112
 326000      .326  -45472.883 -80783.176 234.177216 -81017.353 35310.2934   45707.06  7.8059072
 326500     .3265  -12936.913 -119539.27 227.100797 -119766.37  106602.36 13164.0138 7.57002657
 327000      .327  19782.0843 -156200.82 216.298752 -156417.12 175982.908 -19565.786 7.20995841
 327500     .3275  52125.5976 -190153.89 202.410921  -190356.3 242279.492 -51923.187 6.74703069
 328000      .328   83521.096 -220816.96 186.077631 -221003.04 304338.056 -83335.018  6.2025877
 328500     .3285  113396.794 -247651.33 167.639053 -247818.97 361048.122 -113229.15 5.58796844
 329000      .329  141215.027 -270185.87 146.981454 -270332.85   411400.9 -141068.05 4.89938181
 329500     .3295  166504.766 -288044.51 123.933865 -288168.44 454549.275 -166380.83 4.13112882
 330000       .33  188859.783 -300947.99 98.7785781 -301046.77 489807.775   -188761. 3.29261927
[...]

                    600663.72 -669229.48 -584746.99 961287.522 946660.744   -940625. 2145.31278
Times of maxima :     .017747    .713362    .003047    .003917    .715053    .002246    .714078
             Random switching times for simulation number  297  :
                                   1  5.6055230E-02    2  5.4163897E-02    3  5.4929744E-02    4  9.5205641E-03    5  7.0046628E-01
                                   6  6.9931070E-01    7  6.9985771E-01

                   597792.058 -642375.79 -584746.99 961287.522 930513.656   -940625. 2442.67836
Times of maxima :     .017682    .713616    .003047    .003917    .715055    .002246    .014536
             Random switching times for simulation number  298  :
                                   1  5.4402657E-02    2  5.4726493E-02    3  5.5809066E-02    4  1.1302849E-02    5  6.9999931E-01
                                   6  6.9999918E-01    7  7.0135056E-01

                   577263.859 -647579.85 -584746.99 961287.522 931456.205   -940625. 2150.42225
Times of maxima :     .017954    .713362    .003047    .003917    .715055    .002246    .714006
             Random switching times for simulation number  299  :
                                   1  5.4359107E-02    2  5.5309833E-02    3  5.5354775E-02    4  9.7516764E-03    5  7.0067447E-01
                                   6  7.0174165E-01    7  7.0054964E-01

                   598037.062 -637782.97 -584746.99 961287.522 845177.271   -940625. 2325.20892
Times of maxima :     .017693     .01389    .003047    .003917    .068029    .002246    .014709
             Random switching times for simulation number  300  :
                                   1  5.6212631E-02    2  5.5400460E-02    3  5.4330646E-02    4  9.8967378E-03    5  7.0009595E-01
                                   6  7.0031249E-01    7  6.9985806E-01

                   598817.967 -641200.35 -584746.99 961287.522 921418.094   -940625. 2246.96016
Times of maxima :     .017598    .713617    .003047    .003917    .715058    .002246    .014822

 MAIN20 dumps OVER12 dice seed  SEEDSV =   3.0444871000000000E+09

Statistical output of  node  voltage   0.4287E+06 |              X0003AX0003BX0003C

1 ) -------------------------------------------------------------------------------------------------------------------------------
Statistical distribution of peak voltage at node  "X0003A".   The base voltage for per unit printout is  V-base = 4.28660705E+05
  Interval             voltage         voltage  in     Frequency    Cumulative               Per cent
    number         in per unit      physical units     (density)     frequency     .GE. current value
        26           1.3000000      5.57258917E+05             0             0          100.000000
        27           1.3500000      5.78691952E+05            16            16           94.666667
        28           1.4000000      6.00124987E+05           220           236           21.333333
        29           1.4500000      6.21558022E+05            55           291            3.000000
        30           1.5000000      6.42991058E+05             0           291            3.000000
        31           1.5500000      6.64424093E+05             1           292            2.666667
        32           1.6000000      6.85857128E+05             0           292            2.666667
        33           1.6500000      7.07290163E+05             1           293            2.333333
        34           1.7000000      7.28723199E+05             1           294            2.000000
        35           1.7500000      7.50156234E+05             1           295            1.666667
        36           1.8000000      7.71589269E+05             1           296            1.333333
        37           1.8500000      7.93022304E+05             3           299             .333333
        38           1.9000000      8.14455340E+05             0           299             .333333
        39           1.9500000      8.35888375E+05             1           300             .000000
Summary of preceding table follows:       Grouped data     Ungrouped data
                                 Mean = 1.39266667E+00     1.39872264E+00
                             Variance = 4.85406912E-03     4.37065279E-03
                   Standard deviation = 6.96711498E-02     6.61109128E-02

2 ) -------------------------------------------------------------------------------------------------------------------------------
Statistical distribution of peak voltage at node  "X0003B".   The base voltage for per unit printout is  V-base = 4.28660705E+05
  Interval             voltage         voltage  in     Frequency    Cumulative               Per cent
    number         in per unit      physical units     (density)     frequency     .GE. current value
        28           1.4000000      6.00124987E+05             0             0          100.000000
        29           1.4500000      6.21558022E+05             4             4           98.666667
        30           1.5000000      6.42991058E+05           123           127           57.666667
        31           1.5500000      6.64424093E+05           156           283            5.666667
        32           1.6000000      6.85857128E+05            12           295            1.666667
        33           1.6500000      7.07290163E+05             4           299             .333333
        34           1.7000000      7.28723199E+05             1           300             .000000
Summary of preceding table follows:       Grouped data     Ungrouped data
                                 Mean = 1.50700000E+00     1.50864341E+00
                             Variance = 1.14648829E-03     9.01100714E-04
                   Standard deviation = 3.38598331E-02     3.00183396E-02

3 ) -------------------------------------------------------------------------------------------------------------------------------
  SUMMARY   SUMMARY   SUMMARY   SUMMARY   SUMMARY   SUMMARY   SUMMARY   SUMMARY   SUMMARY   SUMMARY   SUMMARY   SUMMARY   SUMMARY
3 ) -------------------------------------------------------------------------------------------------------------------------------
The following is a distribution of peak overvoltages among all output nodes of the last data card that have the same base voltage.
This distribution is for the maximum of the peaks at all output nodes with  V-base = 4.28660705E+05
  Interval             voltage         voltage  in     Frequency    Cumulative               Per cent
    number         in per unit      physical units     (density)     frequency     .GE. current value
        28           1.4000000      6.00124987E+05             0             0          100.000000
        29           1.4500000      6.21558022E+05             4             4           98.666667
        30           1.5000000      6.42991058E+05           122           126           58.000000
        31           1.5500000      6.64424093E+05           151           277            7.666667
        32           1.6000000      6.85857128E+05            10           287            4.333333
        33           1.6500000      7.07290163E+05             5           292            2.666667
        34           1.7000000      7.28723199E+05             2           294            2.000000
        35           1.7500000      7.50156234E+05             1           295            1.666667
        36           1.8000000      7.71589269E+05             1           296            1.333333
        37           1.8500000      7.93022304E+05             3           299             .333333
        38           1.9000000      8.14455340E+05             0           299             .333333
        39           1.9500000      8.35888375E+05             1           300             .000000
Summary of preceding table follows:       Grouped data     Ungrouped data
                                 Mean = 1.51350000E+00     1.51496876E+00
                             Variance = 3.20342809E-03     2.89920927E-03
                   Standard deviation = 5.65988347E-02     5.38443058E-02

Statistical output of branch voltage   0.4287E+06 |-1            X0003BX0003CX0003AX0003BX0003CX0003A

4 ) -------------------------------------------------------------------------------------------------------------------------------
Statistical distribution of peak voltage  for branch  "X0003A"  to  "X0003B".   Base voltage  for per unit output = 4.28660705E+05
  Interval             voltage         voltage  in     Frequency    Cumulative               Per cent
    number         in per unit      physical units     (density)     frequency     .GE. current value
        37           1.8500000      7.93022304E+05             0             0          100.000000
        38           1.9000000      8.14455340E+05             7             7           97.666667
        39           1.9500000      8.35888375E+05             0             7           97.666667
        40           2.0000000      8.57321410E+05            65            72           76.000000
        41           2.0500000      8.78754445E+05             0            72           76.000000
        42           2.1000000      9.00187481E+05             0            72           76.000000
        43           2.1500000      9.21620516E+05            18            90           70.000000
        44           2.2000000      9.43053551E+05           191           281            6.333333
        45           2.2500000      9.64486586E+05            14           295            1.666667
        46           2.3000000      9.85919622E+05             5           300             .000000
Summary of preceding table follows:       Grouped data     Ungrouped data
                                 Mean = 2.12566667E+00     2.12372700E+00
                             Variance = 8.79554069E-03     8.91450867E-03
                   Standard deviation = 9.37845440E-02     9.44166758E-02

5 ) -------------------------------------------------------------------------------------------------------------------------------
  SUMMARY   SUMMARY   SUMMARY   SUMMARY   SUMMARY   SUMMARY   SUMMARY   SUMMARY   SUMMARY   SUMMARY   SUMMARY   SUMMARY   SUMMARY
5 ) -------------------------------------------------------------------------------------------------------------------------------
A distribution of peak values among all output branches of the last data card that have the same base value follows.  This
statistical distribution is for the maximum of the peaks at all of these output branches having base  voltage  = 4.28660705E+05
  Interval             voltage         voltage  in     Frequency    Cumulative               Per cent
    number         in per unit      physical units     (density)     frequency     .GE. current value
        44           2.2000000      9.43053551E+05             0             0          100.000000
        45           2.2500000      9.64486586E+05           295           295            1.666667
        46           2.3000000      9.85919622E+05             5           300             .000000
Summary of preceding table follows:       Grouped data     Ungrouped data
                                 Mean = 2.22583333E+00     2.24288432E+00
                             Variance = 4.11092531E-05     7.83637054E-06
                   Standard deviation = 6.41164979E-03     2.79935181E-03

Blank card ends statistical tabulation requests.  |BLANK STATISTICS

                                      Sample curve symbols : "A", "B", and "C"
                                      Theoretical curve symbol : "*"
                                      Common curve symbol : "X"

        Switch  "X0001B"  to  "X0002B"            Switch  "X0001A"  to  "X0002A"            Switch  "X0001C"  to  "X0002C"
1.32420000E+00   switchings per column          1.32420000E+00   switchings per column     1.32420000E+00   switchings per column
              Columns                                     Columns                                     Columns
          5   10   15   20   25   30                5   10   15   20   25   30                5   10   15   20   25   30
     +----+----+----+----+----+----+           +----+----+----+----+----+----+           +----+----+----+----+----+----+
    X                                         X                                         X
    X                                         X                                         X
    X                                         X                                         X
    *A                                        X                                         X
    |*A                                       B*                                        |*C
    |A*                                       | X                                       | X
    |   X                                     | B *                                     |   *  C
    |       X                                 |       X                                 |     C *
    |      A    *                             |           *B                            |       C   *
    |                 * A                     |                 *    B                  |                 *  C
    |                       *     A           |                       X                 |                       *    C
    |                      A    *             |                           *   B         |                    C      *
    |  5.5000E-02                 *     A     |  5.5000E-02              B  *           |  5.5000E-02                 *     C
    |                           *      A      |                         B *             |                         C *
    |                  A    *                 |                       * B               |                       *     C
    |               A *                       |                B*                       |            C    *
    |         A *                             |          B*                             |        C  *
    |       * A                               |       X                                 |       *  C
    |  A*                                     |   X                                     | C *
    | *A                                      | X                                       | X
    |X                                        |X                                        |*C
    X                                         *B                                        X
    X                                         X                                         X
    X                                         X                                         *C
    X                                         X                                         X
   Time (scale = 3.33333333E-04  Sec/line)   Time (scale = 3.33333333E-04  Sec/line)   Time  (scale = 3.33333333E-04  Sec/line)

        Switch  "X0003C"  to  "XX0009"            Switch  "X0001B"  to  "X0002B"            Switch  "X0001A"  to  "X0002A"
1.32420000E+00   switchings per column          1.32420000E+00   switchings per column     1.32420000E+00   switchings per column
              Columns                                     Columns                                     Columns
          5   10   15   20   25   30                5   10   15   20   25   30                5   10   15   20   25   30
     +----+----+----+----+----+----+           +----+----+----+----+----+----+           +----+----+----+----+----+----+
    X                                         X                                         X
    X                                         X                                         X
    X                                         X                                         X
    *A                                        X                                         * C
    |X                                        |X                                        |*C
    | *A                                      | X                                       | X
    |  A*                                     |  B*                                     |   X
    |      A*                                 |    B  *                                 |     C *
    |         A *                             |           *  B                          |          C*
    |                 * A                     |                B*                       |                 X
    |                       *     A           |                       *    B            |                       X
    |                           *    A        |                           *B            |                           * C
    |  1.0000E-02                 *A          |  7.0000E-01                 *   B       |  7.0000E-01                C*
    |                           *   A         |                           *  B          |                           *  C
    |                A      *                 |                   B   *                 |                    C  *
    |                 * A                     |            B    *                       |                 X
    |           X                             |         B *                             |           * C
    |     A *                                 |     B *                                 |       X
    A   *                                     |   *  B                                  |   *C
    A *                                       | X                                       C *
    A*                                        |*B                                       |*C
    *A                                        *B                                        X
    X                                         X                                         X
    X                                         *B                                        X
    X                                         X                                         X
   Time (scale = 3.33333333E-04  Sec/line)   Time (scale = 3.33333333E-04  Sec/line)   Time  (scale = 3.33333333E-04  Sec/line)

   Switch  "X0001C"  to  "X0002C"
     1.32420000E+00   switchings per column
              Columns
          5   10   15   20   25   30
     +----+----+----+----+----+----+
    X
    X
    *A
    X
    |X
    |A*
    | A *
    |       X
    |           *    A
    |          A      *
    |                       *    A
    |                         A *
    |  7.0000E-01                A*
    |                          A*
    |                       X
    |                 *  A
    |           *       A
    |    A  *
    |   X
    A *
    A*
    *A
    X
    *A
    X
   Time (scale = 3.33333333E-04  Sec/line)
 .... Questionable Kolmogorov-Smirnov test result = 4.79983461E-01
 .... Questionable Kolmogorov-Smirnov test result = 8.61125218E-01
 .... Questionable Kolmogorov-Smirnov test result = 6.22920778E-01
 .... Questionable Kolmogorov-Smirnov test result = 8.70941508E-02
 .... Questionable Kolmogorov-Smirnov test result = 7.08509700E-01
 .... Questionable Kolmogorov-Smirnov test result = 9.61921384E-01
 .... Questionable Kolmogorov-Smirnov test result = 7.92096056E-01

Actual List Sizes for the preceding solution follow.       11-Nov-18  11.00.00
   Size  1-10:    27    26    38     3   138    13    42  5298     0     0
   Size 11-20:     0     7 -9999 -9999 -9999     0     0     0    23  3252
   Size 21-30:    36   180 14772     0 -9999     9 -9999 -9999 -9999     0
Seconds for overlays  1-5  :     0.000     0.000     0.000  -- (CP: Wait; Real)
Seconds for overlays  6-11 :     0.000     0.000     0.000
Seconds for overlays 12-15 :     0.000     0.000     0.000
Seconds for time-step loop :     0.000     0.000     0.000
Seconds after DELTAT-loop  :     0.000     0.000     0.000
                               ---------------------------
                   Totals  :     0.000     0.000     0.000

