   ---   55   cards of disk file read into card cache cells  1   onward.
 <===> Done with  "/"-card sorting by data class.    Remember that the source file appears different from interpreted input data.
Alternative Transients Program (ATP),  F77 GNU Linux or DOS.  All rights reserved by Can/Am user group of Portland, Oregon, USA.
 Date (dd-mth-yy) and time of day (hh.mm.ss) = 11-Nov-18  11.00.00    Name of disk plot file, if any, is
Consult the 860-page ATP Rule Book of the Can/Am EMTP User Group in Portland,  Oregon, USA.  Source code date is
Total size of LABCOM tables = 16446853 INTEGER words.  31 VARDIM  List Sizes follow:  6002  10K  192K  900  420K  1200  15K
  120K  2250  3800  720  2K  72800  510  800K  800  90  254  800K  100K  3K  15K  192K  120  45K  260K  600  210K  1100  19  200K
--------------------------------------------------+--------------------------------------------------------------------------------
Descriptive interpretation of input data cards.   |  Input data card images are shown below, all 80 columns, character by character
                                                  0         1         2         3         4         5         6         7         8
                                                  012345678901234567890123456789012345678901234567890123456789012345678901234567890
--------------------------------------------------+--------------------------------------------------------------------------------
Comment card.   KOMPAR > 0.                       |C data:Caso0_ReEnergizacao_Convenc_RPI.atp
Marker card preceding new EMTP data case.         |BEGIN NEW DATA CASE
Comment card.   KOMPAR > 0.                       |C $DUMMY, XYZ000
Misc. data.     1.000E-06   1.000E+00   0.000E+00 |   1.E-6      1.
Misc. data.  500  1  0  0  1  0  0  1  300  0     |     500       1       0       0       1       0       0       1     300
Statistics data.      1    1    0    0    1    0  |       1       1       0       0       1      -1                               0
Series R-L-C.   5.000E+00  7.500E-02  0.000E+00   |  X0001AX0007A                5.   75.                                         0
Series R-L-C.   5.000E+00  7.500E-02  0.000E+00   |  X0001BX0007B                5.   75.                                         0
Series R-L-C.   5.000E+00  7.500E-02  0.000E+00   |  X0001CX0007C                5.   75.                                         0
Series R-L-C.   2.000E+02  0.000E+00  0.000E+00   |  X0007AX0001A              200.                                               0
Series R-L-C.   2.000E+02  0.000E+00  0.000E+00   |  X0007BX0001B              200.                                               0
Series R-L-C.   2.000E+02  0.000E+00  0.000E+00   |  X0007CX0001C              200.                                               0
Series R-L-C.   1.516E+00  1.608E+00  0.000E+00   |  X0003BXX0008            1.5155 1608.                                         0
Series R-L-C.   1.516E+00  1.608E+00  0.000E+00   |  X0003AXX0008            1.5155 1608.                                         0
Series R-L-C.   1.516E+00  1.608E+00  0.000E+00   |  X0003CXX0008            1.5155 1608.                                         0
Series R-L-C.   3.272E-01  3.472E-01  0.000E+00   |  XX0008                   .3272 347.2                                         0
Series R-L-C.   3.000E+01  0.000E+00  0.000E+00   |  XX0009                     30.                                               0
Series R-L-C.   6.000E+02  0.000E+00  0.000E+00   |  X0002AX0010A              600.                                               0
Series R-L-C.   6.000E+02  0.000E+00  0.000E+00   |  X0002BX0010B              600.                                               0
Series R-L-C.   6.000E+02  0.000E+00  0.000E+00   |  X0002CX0010C              600.                                               0
Dynamic $INCLUDE uses fixed RAM cache to delay.   |$INSERT, C:\SimulacaoATP\2\EXT1.pch
J. Marti line, mode  1   parameters begin.        |-1X0010AX0006C                2.  0.00              -2 3
J. Marti line, mode  2   parameters begin.        |-2X0010BX0006A                2.  0.00              -2 3
J. Marti line, mode  3   parameters begin.        |-3X0010CX0006B                2.  0.00              -2 3
TR(1,1 )...  0.667-0.707-0.317                    |  0.66668704 -0.70710678 -0.31743981
TI(1,1 )...  0.000 0.000 0.004                    |  0.00000000  0.00000000  0.00360196
TR(2,1 )...  0.333 0.000 0.894                    |  0.33285412  0.00000000  0.89350256
TI(2,1 )... -0.016 0.000 0.010                    | -0.01627623  0.00000000  0.00954818
TR(3,1 )...  0.667 0.707-0.317                    |  0.66668704  0.70710678 -0.31743981
TI(3,1 )...  0.000 0.000 0.004                    |  0.00000000  0.00000000  0.00360196
Dynamic $INCLUDE uses fixed RAM cache to delay.   |$INSERT, C:\SimulacaoATP\2\CONV2.pch
J. Marti line, mode  1   parameters begin.        |-1X0004AX0005C                2.  0.00              -2 3
J. Marti line, mode  2   parameters begin.        |-2X0004BX0005A                2.  0.00              -2 3
J. Marti line, mode  3   parameters begin.        |-3X0004CX0005B                2.  0.00              -2 3
TR(1,1 )...  0.667-0.707-0.317                    |  0.66668704 -0.70710678 -0.31743981
TI(1,1 )...  0.000 0.000 0.004                    |  0.00000000  0.00000000  0.00360196
TR(2,1 )...  0.333 0.000 0.894                    |  0.33285412  0.00000000  0.89350256
TI(2,1 )... -0.016 0.000 0.010                    | -0.01627623  0.00000000  0.00954818
TR(3,1 )...  0.667 0.707-0.317                    |  0.66668704  0.70710678 -0.31743981
TI(3,1 )...  0.000 0.000 0.004                    |  0.00000000  0.00000000  0.00360196
Dynamic $INCLUDE uses fixed RAM cache to delay.   |$INSERT, C:\SimulacaoATP\2\EXT3.pch
J. Marti line, mode  1   parameters begin.        |-1X0005AX0003A                2.  0.00              -2 3
J. Marti line, mode  2   parameters begin.        |-2X0005BX0003B                2.  0.00              -2 3
J. Marti line, mode  3   parameters begin.        |-3X0005CX0003C                2.  0.00              -2 3
TR(1,1 )...  0.667-0.707-0.317                    |  0.66668704 -0.70710678 -0.31743981
TI(1,1 )...  0.000 0.000 0.004                    |  0.00000000  0.00000000  0.00360196
TR(2,1 )...  0.333 0.000 0.894                    |  0.33285412  0.00000000  0.89350256
TI(2,1 )... -0.016 0.000 0.010                    | -0.01627623  0.00000000  0.00954818
TR(3,1 )...  0.667 0.707-0.317                    |  0.66668704  0.70710678 -0.31743981
TI(3,1 )...  0.000 0.000 0.004                    |  0.00000000  0.00000000  0.00360196
Dynamic $INCLUDE uses fixed RAM cache to delay.   |$INSERT, C:\SimulacaoATP\2\CONV4.pch
J. Marti line, mode  1   parameters begin.        |-1X0006AX0004C                2.  0.00              -2 3
J. Marti line, mode  2   parameters begin.        |-2X0006BX0004A                2.  0.00              -2 3
J. Marti line, mode  3   parameters begin.        |-3X0006CX0004B                2.  0.00              -2 3
TR(1,1 )...  0.667-0.707-0.317                    |  0.66668704 -0.70710678 -0.31743981
TI(1,1 )...  0.000 0.000 0.004                    |  0.00000000  0.00000000  0.00360196
TR(2,1 )...  0.333 0.000 0.894                    |  0.33285412  0.00000000  0.89350256
TI(2,1 )... -0.016 0.000 0.010                    | -0.01627623  0.00000000  0.00954818
TR(3,1 )...  0.667 0.707-0.317                    |  0.66668704  0.70710678 -0.31743981
TI(3,1 )...  0.000 0.000 0.004                    |  0.00000000  0.00000000  0.00360196
Blank card ending branches.  IBR, NTOT = 26  27   |BLANK BRANCH
Switch.   5.50E-02  1.00E-03  0.00E+00  3.33E+03  |  X0001BX0002B      .055      .001               3333.STATISTICS               0
Switch.   5.50E-02  1.00E-03  0.00E+00  3.33E+03  |  X0001AX0002A      .055      .001               3333.STATISTICS               0
Switch.   5.50E-02  1.00E-03  0.00E+00  3.33E+03  |  X0001CX0002C      .055      .001               3333.STATISTICS               0
Switch.   1.00E-02  1.00E-03  0.00E+00  0.00E+00  |  X0003CXX0009       .01      .001                    STATISTICS               1
Switch.   7.00E-01  1.00E-03  0.00E+00  0.00E+00  |  X0001BX0002B        .7      .001                    STATISTICS               0
Switch.   7.00E-01  1.00E-03  0.00E+00  0.00E+00  |  X0001AX0002A        .7      .001                    STATISTICS               0
Switch.   7.00E-01  1.00E-03  0.00E+00  0.00E+00  |  X0001CX0002C        .7      .001                    STATISTICS               0
Switch.   0.00E+00  6.98E-01  0.00E+00  0.00E+00  |  X0002AX0010A                .698                                             0
Switch.   0.00E+00  6.98E-01  0.00E+00  0.00E+00  |  X0002BX0010B                .698                                             0
Switch.   0.00E+00  6.98E-01  0.00E+00  0.00E+00  |  X0002CX0010C                .698                                             0
Switch.   7.10E-01  0.00E+00  0.00E+00  0.00E+00  |  X0002AX0010A       .71                                                       0
Switch.   7.10E-01  0.00E+00  0.00E+00  0.00E+00  |  X0002BX0010B       .71                                                       0
Switch.   7.10E-01  0.00E+00  0.00E+00  0.00E+00  |  X0002CX0010C       .71                                                       0
Blank card ending switches.   KSWTCH = 13.        |BLANK SWITCH
Source.   4.29E+05  6.00E+01  0.00E+00 -1.00E+00  |14X0007A  428660.705       60.                                     -1.      100.
Source.   4.29E+05  6.00E+01 -1.20E+02 -1.00E+00  |14X0007B  428660.705       60.     -120.                           -1.      100.
Source.   4.29E+05  6.00E+01 -2.40E+02 -1.00E+00  |14X0007C  428660.705       60.     -240.                           -1.      100.
Blank card ends electric sources.  KCONST = 3     |BLANK SOURCE

     Total network loss  P-loss  by summing injections =   2.359741646785E+08

Card of names for time-step loop output.          |  X0003AX0003BX0003C
Output voltage differences for pairs of A6 names  |-5X0003BX0003CX0003AX0003BX0003CX0003A
Blank card ending requests for output variables.  |BLANK OUTPUT

Column headings for the  7   EMTP output variables follow.  These are divided among the 5 possible classes as follows ....
  First  6     output variables are electric-network voltage differences (upper voltage minus lower voltage);
  Next   1     output variables are branch currents (flowing from the upper node to the lower node);
   Step      Time      X0003A     X0003B     X0003C     X0003B     X0003A     X0003C     X0003C
                                                        X0003C     X0003B     X0003A     XX0009
 ***      Phasor I(0) =  1.2530871E+02                     Switch  "X0001B"  to  "X0002B"  closed in the steady-state.
 ***      Phasor I(0) =  3.6994322E+02                     Switch  "X0001A"  to  "X0002A"  closed in the steady-state.
 ***      Phasor I(0) = -4.9200433E+02                     Switch  "X0001C"  to  "X0002C"  closed in the steady-state.
 ***                    Switch  "X0002A"  to  "X0010A"  closed  after  0.00000000E+00  sec.
 ***                    Switch  "X0002B"  to  "X0010B"  closed  after  0.00000000E+00  sec.
 ***                    Switch  "X0002C"  to  "X0010C"  closed  after  0.00000000E+00  sec.
      0       0.0  214689.688 -303859.19 87715.5754 -391574.76 518548.876 -126974.11        0.0
    500     .5E-3  252486.371 -283640.85 30919.5238 -314560.38 536127.223 -221566.85        0.0
   1000     .1E-2  282360.766 -253808.29 -27406.312 -226401.98 536169.055 -309767.08        0.0
   1500     .0015  301433.499 -215094.98 -84618.835 -130476.15 516528.484 -386052.33        0.0
   2000      .002  541174.378 -65534.864 -540637.78 475102.921 606709.241 -.108181E7        0.0
   2500     .0025  518325.244 106229.262 -643846.46 750075.718 412095.982 -.116217E7        0.0
   3000      .003  449647.379 240229.578  -711363.8 951593.379   209417.8 -.116101E7        0.0
   3500     .0035  349298.296 338198.174 -713652.15  .105185E7 11100.1218 -.106295E7        0.0
   4000      .004  234807.477 440304.665 -656312.49 .1096617E7 -205497.19 -891119.96        0.0
   4500     .0045  113414.603 528873.066 -592481.45 .1121355E7 -415458.46 -705896.05        0.0
   5000      .005  -31044.866 587403.321 -509844.38 .1097248E7 -618448.19 -478799.51        0.0
   5500     .0055   -273945.6 586088.302 -275481.41 861569.714  -860033.9 -1535.8146        0.0
   6000      .006  -441384.18 524682.457 -58811.508 583493.964 -966066.64 382572.672        0.0
   6500     .0065  -535852.46 450242.923 123368.884 326874.039 -986095.38 659221.341        0.0
   7000      .007  -586704.81 373403.293 255179.457 118223.835  -960108.1 841884.265        0.0
   7500     .0075  -602373.86 295197.112 328091.316 -32894.204 -897570.97 930465.175        0.0
   8000      .008  -590398.27 203703.866 374186.073 -170482.21 -794102.13  964584.34        0.0
   8500     .0085  -550513.96  102338.69 405303.015 -302964.33 -652852.65 955816.979        0.0
   9000      .009  -449808.53 10359.8868 378424.592  -368064.7 -460168.42  828233.12        0.0
   9500     .0095  -332022.85 -52499.787 323221.769 -375721.56 -279523.06 655244.616        0.0
  10000       .01  -233354.98 -97106.698 270023.082 -367129.78 -136248.28 503378.058        0.0
 ***                                                             Close switch  "X0003C"  to  "XX0009"  after  1.00010000E-02  sec.
  10500     .0105  -209538.42 -196719.79 22663.2876 -219383.08 -12818.628 232201.706 755.442921
  11000      .011  -148609.65  -242862.9 23250.7739 -266113.68 94253.2557 171860.423 775.025798
  11500     .0115  -98122.881 -297164.23 25916.4725  -323080.7 199041.348 124039.353 863.882415
  12000      .012  -63097.739 -355174.97 31052.4339  -386227.4 292077.227 94150.1727 1035.08113
  12500     .0125  -41408.335 -394245.03 35744.4914 -429989.52 352836.691 77152.8269 1191.48305
  13000      .013  -16487.997 -434442.32 39810.4519 -474252.78 417954.328 56298.4488 1327.01506
  13500     .0135   -32989.09 -490866.36 44881.6804 -535748.04 457877.272 77870.7706 1496.05601
  14000      .014  -43276.669 -581550.86 55360.9692 -636911.83 538274.191 98637.6382 1845.36564
  14500     .0145  60632.9431 -562171.89 62157.5574 -624329.45 622804.834 1524.61432 2071.91858
  15000      .015  165191.973 -515740.47 62495.8577 -578236.33 680932.444 -102696.12 2083.19526
  15500     .0155  260645.517 -455528.03 56777.4792 -512305.51 716173.545 -203868.04 1892.58264
  16000      .016  361962.372 -381424.96 48338.4194 -429763.37 743387.327 -313623.95 1611.28065
  16500     .0165   462743.96 -286697.73 38767.3517 -325465.08 749441.686 -423976.61 1292.24506
  17000      .017  556203.411 -166410.16 27370.8071 -193780.97 722613.575  -528832.6 912.360237
  17500     .0175  620425.818 -32194.552 15664.2221 -47858.774  652620.37  -604761.6 522.140737
  18000      .018  646222.691   113937.2 7992.66758 105944.533  532285.49 -638230.02 266.422253
  18500     .0185  637567.513 255019.995 2726.66882 252293.326 382547.519 -634840.84 90.8889606
  19000      .019   590457.42 374095.545 -4473.9622 378569.507 216361.875 -594931.38 -149.13207
  19500     .0195  507783.638 471225.081 -13082.481 484307.562 36558.5577 -520866.12  -436.0827
  20000       .02  393233.223 543696.403 -22102.746 565799.149 -150463.18 -415335.97 -736.75819
  20500     .0205  258735.829 588894.093  -30865.45 619759.543 -330158.26 -289601.28 -1028.8483
  21000      .021   116212.73 605172.887 -39188.997 644361.885 -488960.16 -155401.73 -1306.2999
  21500     .0215  -30915.232 585662.798 -46189.955 631852.753 -616578.03 -15274.723 -1539.6652
  22000      .022  -172527.95 535935.393 -50428.531 586363.924 -708463.34 122099.419  -1680.951
  22500     .0225  -292315.98 473330.393 -51982.963 525313.356 -765646.37 240333.013 -1732.7654
  23000      .023  -384281.84 406212.926 -51388.086 457601.012 -790494.76 332893.752 -1712.9362
  23500     .0235  -449164.11 334568.728 -49243.151 383811.879 -783732.84 399920.958 -1641.4384
  24000      .024  -489740.37 258805.985  -45671.24 304477.225 -748546.36 444069.131 -1522.3747
  24500     .0245  -508720.89  181418.03 -40696.299 222114.329 -690138.92 468024.595 -1356.5433
  25000      .025  -508975.68  105571.16 -34624.835 140195.995 -614546.84 474350.842 -1154.1612
  25500     .0255   -495639.2 31345.2496  -27492.08 58837.3294 -526984.45 468147.118 -916.40266
  26000      .026  -471963.86 -41889.641 -18847.846 -23041.795 -430074.22  453116.01 -628.26154
  26500     .0265  -440323.24 -115660.64 -8641.9555 -107018.69  -324662.6 431681.286 -288.06518
  27000      .027  -402894.94 -191119.71 2448.66627 -193568.37 -211775.23 405343.604 81.6222089
  27500     .0275  -360148.83 -267472.33 13606.5589 -281078.89 -92676.505 373755.393 453.551963
  28000      .028  -311043.39 -342441.11 24211.5126 -366652.62 31397.7165 335254.903 807.050419
  28500     .0285  -253555.67 -412525.71 33781.2191 -446306.93 158970.041 287336.889 1126.04064
  29000      .029  -186142.32 -473884.87  41854.082 -515738.96 287742.558 227996.399 1395.13607
  29500     .0295  -109486.39 -523226.11 48149.9531 -571376.06 413739.718 157636.344 1604.99844
  30000       .03  -24874.532 -556568.96 52640.6325  -609209.6 531694.431 77515.1641 1754.68775
  30500     .0305  66793.3844 -568984.71 55357.6031 -624342.31  635778.09 -11435.781 1845.25344
  31000      .031  163741.774  -556280.3 56301.6332 -612581.93 720022.076 -107440.14 1876.72111
  31500     .0315  262037.779 -516758.21 55444.6185 -572202.83 778795.992 -206593.16 1848.15395
  32000      .032  356073.385  -451494.3 52794.0816 -504288.38 807567.686  -303279.3 1759.80272
  32500     .0325  439952.518 -363571.44 48406.5345 -411977.98 803523.963 -391545.98 1613.55115
  33000      .033  508349.169 -257573.48 42357.4019 -299930.88 765922.649 -465991.77  1411.9134
  33500     .0335  556708.367 -139412.21 34811.0617 -174223.27  696120.58 -521897.31 1160.36872
  34000      .034  581619.043 -15785.126 26088.9505 -41874.077 597404.169 -555530.09 869.631685
  34500     .0345  581070.942 106357.035 16600.0418 89756.9932 474713.907  -564470.9 553.334728
  35000      .035  554727.246 220411.778 6722.60641 213689.172 334315.468 -548004.64  224.08688
  35500     .0355  504067.659 320847.057 -3227.0125  324074.07 183220.602 -507294.67 -107.56708
  36000      .036  432203.937 403711.025 -12957.431 416668.456 28492.9119 -445161.37 -431.91437
  36500     .0365  343493.431 466793.105 -22185.662 488978.768 -123299.67 -365679.09 -739.52207
  37000      .037  242923.571 509357.352 -30650.095 540007.447 -266433.78 -273573.67 -1021.6698
  37500     .0375   135507.57 531704.396 -38101.377 569805.772 -396196.83 -173608.95 -1270.0459
  38000      .038  26053.6354  534952.85 -44283.796 579236.646 -508899.21 -70337.432 -1476.1265
  38500     .0385  -80910.376 520944.261 -48943.754 569888.015 -601854.64 31966.6223 -1631.4585
  39000      .039   -181343.5 491959.981 -51860.145 543820.126 -673303.48  129483.35 -1728.6715
  39500     .0395  -271980.39 450222.852 -52874.472 503097.324 -722203.24 219105.916 -1762.4824
  40000       .04  -350448.28 397510.663  -51907.29 449417.953 -747958.94 298540.988  -1730.243
  40500     .0405  -415125.46 335105.775 -48968.751 384074.525 -750231.24 366156.712 -1632.2917
  41000      .041   -464937.5 263968.755 -44165.551 308134.306 -728906.25 420771.945  -1472.185
  41500     .0415  -499221.79 184975.682 -37689.433 222665.115 -684197.47 461532.357 -1256.3144
  42000      .042  -517630.87 99151.7878 -29791.059 128942.847 -616782.66 487839.815  -993.0353
  % % % % % %   Suspended simulation;  plot data space exhausted;  SPY SPACE is required.   LIMBUF =  340000.
  % % % % % %   Suspended simulation;  plot data space exhausted;  SPY SPACE is required.   LIMBUF =  340000.
  +++  Time-sharing disabled.   Send  user-keyed interrupt to silence alarm.
   Current values.  INDBUF  INDBEG  LIMBUF  MFLUSH  NUMDCD  KCARD1  KCARD2
                    339994      50  340000    1000      46       1      50
Plot timespan now in memory (in sec) = 0.00000000E+00   4.24930000E-02
   ++++  Begin plot-data copy from memory to disk.   MFLUSH, INDBUF, N4, Tbeg,  Tend = 1001  339994       1  -1.00000E+00
1.00000E+19
  42500     .0425   -520053.2 7872.99682 -20760.582 28633.5793  -527926.2 499292.616 -692.01941
  43000      .043  -506561.33 -86954.903 -10922.989 -76031.914 -419606.42 495638.337 -364.09965
  43500     .0435  -477405.53 -182753.11 -635.42782 -182117.68 -294652.43 476770.106 -21.180927
  44000      .044  -433056.36 -276223.43 9724.52233 -285947.96 -156832.92 442780.881 324.150744
  44500     .0445  -374285.24 -363459.98 19774.9266  -383234.9 -10825.264 394060.166 659.164221
  45000      .045  -302284.62 -440240.79  29143.867 -469384.65  137956.17 331428.482 971.462234
  45500     .0455  -218792.62  -502432.4 37484.6094 -539917.01  283639.78 256277.228 1249.48698
  46000      .046   -126155.7 -546390.02 44492.9782   -590883. 420234.314 170648.682 1483.09927
  46500     .0465  -27296.962 -569283.91 49922.7089 -619206.62 541986.951 77219.6709  1664.0903
  47000      .047  74384.6906 -569353.39 53594.6134   -622948. 643738.079 -20790.077 1786.48711
  47500     .0475  175145.809 -546098.81 55399.5673 -601498.38 721244.617 -119746.24 1846.65224
  48000      .048  271057.468 -500377.14 55297.4875 -555674.63 771434.611 -215759.98 1843.24958
  48500     .0485  358206.072 -434352.85 53313.1141 -487665.97 792558.925 -304892.96  1777.1038
  49000      .049  432922.046 -351302.44 49529.5617   -400832. 784224.483 -383392.48 1650.98539
  49500     .0495  492003.481 -255317.44 44082.6116 -299400.05  747320.92 -447920.87 1469.42039
  50000       .05  532906.139 -150963.16 37157.6155 -188120.78 683869.301 -495748.52 1238.58718
  50500     .0505  553883.171 -42939.312 28987.1935 -71926.505 596822.483 -524895.98 966.239784
  51000      .051  554069.279 64226.5205 19846.5618 44379.9587 489842.759 -534222.72 661.552061
  51500     .0515  533510.699 166430.344 10045.7056 156384.639 367080.354 -523464.99 334.856853
  52000      .052  493144.789 260169.794 -80.246714 260250.041 232974.995 -493225.04 -2.6748905
  52500     .0525  434731.721 342634.575 -10181.697 352816.273 92097.1457 -444913.42 -339.38991
  53000      .053  360739.657 411706.159 -19906.439 431612.598 -50966.502  -380646.1 -663.54797
  53500     .0535  274192.614 465883.873 -28912.289 494796.163 -191691.26  -303104.9 -963.74298
  54000      .054  178501.493  504173.14 -36879.456 541052.597 -325671.65 -215380.95 -1229.3152
  54500     .0545  77299.8648 525974.749 -43521.924 569496.673 -448674.88 -120821.79 -1450.7308
  55000      .055  -25705.043 531001.281 -48597.764 579599.045 -556706.32 -22892.721 -1619.9255
  55500     .0555  -126866.36 519231.247 -51918.334 571149.581  -646097.6 74948.0233 -1730.6111
  56000      .056  -222716.93 490904.168 -53356.107 544260.275  -713621.1 169360.825 -1778.5369
  56500     .0565  -310070.06 446556.777 -52850.802 499407.579 -756626.84 257219.257 -1761.6934
 ***                                                             Open  switch  "X0001B"  to  "X0002B"  after  5.68670000E-02  sec.
  57000      .057  -386098.28 387093.134 -50413.405 437506.539 -773191.41 335684.876 -1680.4468
  57500     .0575  -448392.43 313870.782 -46127.356 359998.138 -762263.21 402265.071 -1537.5785
  58000      .058  -495006.75 228777.601 -40146.188 268923.789 -723784.36 454860.567 -1338.2063
  58500     .0585  -524495.45 134274.193  -32687.48 166961.673 -658769.65 491807.974 -1089.5827
  59000      .059  -546417.72  64221.507 -25256.844 89478.3513 -610639.23 521160.875 -841.89481
 ***                                                             Open  switch  "X0001A"  to  "X0002A"  after  5.94920000E-02  sec.
  59500     .0595  -539043.37 8033.75394 -15975.928 24009.6823 -547077.13 523067.444 -532.53094
  60000       .06  -512093.23 -49312.833 -5956.4869 -43356.346 -462780.39 506136.739 -198.54956
 ***                                                             Open  switch  "X0001C"  to  "X0002C"  after  6.01050000E-02  sec.
  60500     .0605  -468992.06  -110810.3 4333.70108   -115144. -358181.76 473325.761 144.456703
  61000      .061  -410932.43 -175741.99 14546.9284 -190288.92 -235190.44 425479.363 484.897614
  61500     .0615  -359551.19 -239062.61 25362.3048 -264424.92 -120488.58 384913.493 845.410161
  62000      .062  -294175.07 -287711.54  32562.056  -320273.6 -6463.5223 326737.121 1085.40187
  62500     .0625  -234454.17 -317053.33 31150.5942 -348203.92  82599.155 265604.769 1038.35314
  63000      .063  -179578.39 -355395.21 25420.9919  -380816.2 175816.819 204999.383 847.366398
  63500     .0635  -107045.02 -387332.18  19507.503 -406839.68  280287.16 126552.525 650.250099
  64000      .064   -21943.75 -409950.74 12897.6657 -422848.41 388006.991 34841.4158  429.92219
  64500     .0645  66800.0743 -430275.25 5602.94039 -435878.19  497075.32 -61197.134  186.76468
  65000      .065   141456.19 -441302.32 -1679.5953 -439622.73 582758.511 -143135.79 -55.986509
  65500     .0655  203908.448 -451731.17 -8107.8268 -443623.35 655639.621 -212016.28 -270.26089
  66000      .066   219882.23  -475053.6 -11407.719 -463645.88 694935.826 -231289.95  -380.2573
  66500     .0665  256517.165 -482351.61 -11221.924 -471129.69 738868.774 -267739.09 -374.06412
  67000      .067  308520.758 -473646.83 -10019.588 -463627.24 782167.591 -318540.35 -333.98628
  67500     .0675  361996.215 -455328.38 -7749.9575 -447578.42 817324.595 -369746.17 -258.33192
  68000      .068  408359.201 -433912.13  -3974.383 -429937.75 842271.331 -412333.58 -132.47943
  68500     .0685  440405.657 -397558.48 1042.12155  -398600.6 837964.132 -439363.54 34.7373849
  69000      .069  457411.567 -349836.54 6475.97585 -356312.51 807248.104 -450935.59 215.865862
  69500     .0695  461837.409 -294005.87 11608.2699 -305614.14  755843.28 -450229.14  386.94233
  70000       .07  476108.428 -233397.41 13273.7304 -246671.14 709505.837  -462834.7 442.457679
  70500     .0705  478052.401 -180109.02 12717.6936 -192826.71 658161.417 -465334.71 423.923121
  71000      .071  478157.422  -123525.8 11708.4257 -135234.22 601683.221   -466449. 390.280857
  71500     .0715  474933.568 -58942.133 10232.4597 -69174.593 533875.702 -464701.11 341.081989
  72000      .072  457871.503 14052.8786  7771.5431 6281.33551 443818.624 -450099.96 259.051437
  72500     .0725  420916.196 90108.5834 4551.23413 85557.3492 330807.613 -416364.96 151.707804
  73000      .073  376664.683 161491.697 1087.90148 160403.795 215172.986 -375576.78 36.2633826
  73500     .0735  322111.862 212114.638 -1573.2209 213687.859 109997.224 -323685.08 -52.440698
  74000      .074  265934.875 254816.989 -2729.1268 257546.116 11117.8858   -268664. -90.970893
  74500     .0745   215677.58 296291.821 -3260.2706 299552.091 -80614.241 -218937.85 -108.67569
  75000      .075  161087.465 338593.592 -3365.9791 341959.571 -177506.13 -164453.44  -112.1993
  75500     .0755  96109.9813 377623.175  -2500.818 380123.993 -281513.19 -98610.799 -83.360599
  76000      .076  21493.7209 418517.732 -711.89842  419229.63 -397024.01 -22205.619 -23.729947
  76500     .0765   -48015.09  451032.91 1496.32825 449536.582   -499048. 49511.4185 49.8776084
  77000      .077  -111310.25 468030.158 4061.27921 463968.879 -579340.41 115371.528 135.375974
  77500     .0775  -164185.34 476471.281 5840.81467 470630.467 -640656.62 170026.157 194.693822
  78000      .078  -215202.53 470725.427 6666.76124 464058.666 -685927.96 221869.292 222.225375
  78500     .0785  -267480.17 461946.598 7182.80004 454763.798 -729426.77 274662.971 239.426668
  79000      .079  -316365.99 452224.144 7472.85596 444751.288 -768590.14 323838.848 249.095199
  79500     .0795  -364347.22 444660.111 6978.57434 437681.536 -809007.33 371325.791 232.619145
  80000       .08  -401780.59  425034.11  5781.7949 419252.315  -826814.7 407562.384 192.726497
  80500     .0805  -426597.73  391365.66 4381.74738 386983.913 -817963.39 430979.475 146.058246
  81000      .081  -443770.35 344511.125 3095.09319 341416.032 -788281.47 446865.442 103.169773
  81500     .0815  -455336.32 286700.801 2337.92899 284362.872 -742037.12 457674.251 77.9309664
  82000      .082  -462654.69 230397.669 1806.17446 228591.494 -693052.36 464460.862 60.2058152
  82500     .0825  -465026.58 175981.747  1239.4454 174742.302 -641008.33 466266.025 41.3148467
  83000      .083  -464718.41  123213.91 885.625208 122328.285 -587932.32 465604.035 29.5208403
  83500     .0835  -450268.31 64561.8423   1045.919 63515.9233 -514830.15 451314.225 34.8639665
  84000      .084  -421244.01 1710.03081 1673.39704 36.6337631 -422954.04 422917.403 55.7799015
  84500     .0845  -383470.62 -64720.637 2666.37498 -67387.012 -318749.98  386136.99 88.8791661
  % % % % % %   Suspended simulation;  plot data space exhausted;  SPY SPACE is required.   LIMBUF =  340000.
  % % % % % %   Suspended simulation;  plot data space exhausted;  SPY SPACE is required.   LIMBUF =  340000.
  +++  Time-sharing disabled.   Send  user-keyed interrupt to silence alarm.
   Current values.  INDBUF  INDBEG  LIMBUF  MFLUSH  NUMDCD  KCARD1  KCARD2
                    339994      50  340000    1001      46       1      50
Plot timespan now in memory (in sec) = 4.24919985E-02   8.49850000E-02
   ++++  Begin plot-data copy from memory to disk.   MFLUSH, INDBUF, N4, Tbeg,  Tend = 1002  339994       1  -1.00000E+00
1.00000E+19
  85000      .085  -338519.48 -130602.34 3658.96858 -134261.31 -207917.14 342178.445 121.965619
  85500     .0855  -294731.12 -191677.49 4341.45121 -196018.94 -103053.63 299072.569  144.71504
  86000      .086  -251853.07 -245315.18 4770.96862 -250086.15 -6537.8895 256624.036 159.032287
  86500     .0865  -204918.02 -290582.49  4996.1754 -295578.66 85664.4692 209914.194  166.53918
  87000      .087  -146118.91 -332661.89 4884.53156 -337546.42 186542.978 151003.445 162.817719
  87500     .0875  -80448.505 -371993.62  4484.7341 -376478.35 291545.115 84933.2391 149.491137
  88000      .088  -12395.834  -408238.6 4007.48904 -412246.09 395842.764 16403.3232 133.582968
  88500     .0885  53189.3495  -438117.8 3502.18165 -441619.99 491307.154 -49687.168 116.739388
  89000      .089  110741.591 -459673.35 3109.71692 -462783.07 570414.945 -107631.87 103.657231
  89500     .0895  160846.352  -468634.7 2643.95928 -471278.66 629481.053 -158202.39 88.1319761
  90000       .09  209810.485 -468338.91 1983.67952 -470322.59 678149.397 -207826.81 66.1226506
  90500     .0905  260935.983 -463868.87 1358.63434 -465227.51 724804.858 -259577.35 45.2878112
  91000      .091  310802.215 -453876.67  1072.8935 -454949.56 764678.886 -309729.32 35.7631166
  91500     .0915  357322.254 -437562.88  1134.9568 -438697.84 794885.136  -356187.3 37.8318933
  92000      .092  394199.699 -412411.72 1425.38748 -413837.11 806611.417 -392774.31  47.512916
  92500     .0925  419937.975  -378272.2 1820.78319 -380092.98 798210.172 -418117.19 60.6927729
  93000      .093  432772.097 -334213.43 2069.03415 -336282.46 766985.525 -430703.06 68.9678049
  93500     .0935  440257.811 -285947.01 2163.46506 -288110.48 726204.822 -438094.35 72.1155019
  94000      .094  445991.105 -236134.58 2260.56227 -238395.15 682125.688 -443730.54 75.3520757
  94500     .0945  448139.991 -182847.79 2347.67799 -185195.47 630987.782 -445792.31 78.2559332
  95000      .095   443885.28  -127261.8 2368.00242  -129629.8 571147.076 -441517.28 78.9334141
  95500     .0955  427653.205 -67467.636 2360.82554 -69828.461  495120.84 -425292.38 78.6941845
  96000      .096  400290.344 -4682.9759 2304.59848 -6987.5744  404973.32 -397985.75 76.8199493
  96500     .0965  361354.859 60440.6219 2154.14363 58286.4783 300914.237 -359200.71 71.8047878
  97000      .097  319693.154 122016.475 1900.64593 120115.829  197676.68 -317792.51 63.3548645
  97500     .0975  277727.911 178267.784 1604.70718 176663.077 99460.1268  -276123.2 53.4902394
  98000      .098  233459.242 230216.529 1348.51717 228868.012 3242.71289 -232110.72 44.9505723
  98500     .0985  185233.908 277779.816 1254.57967 276525.237 -92545.908 -183979.33 41.8193223
  99000      .099  130206.607 323493.637 1337.77419 322155.863 -193287.03 -128868.83  44.592473
  99500     .0995  69615.6863 366269.513 1484.82373 364784.689 -296653.83 -68130.863 49.4941242
 100000       0.1  5609.77446 404519.199 1615.81873 402903.381 -398909.42 -3993.9557 53.8606242
 100500     .1005  -54386.314 432699.247 1706.08366 430993.164 -487085.56 56092.3975 56.8694554
 101000      .101  -109484.64 450337.329 1827.26242 448510.067 -559821.97 111311.901 60.9087472
 101500     .1015  -160917.44 459129.194 2024.02293 457105.171 -620046.63 162941.464  67.467431
 102000      .102  -209721.85 461130.869 2258.61519 458872.254 -670852.72  211980.47 75.2871729
 102500     .1025  -257947.42 458262.014  2466.9975 455795.016 -716209.44 260414.422 82.2332498
 103000      .103   -305267.2 450372.902 2590.47266 447782.429  -755640.1 307857.675 86.3490888
 103500     .1035   -347674.1 435660.771 2610.96001 433049.811 -783334.87  350285.06 87.0320003
 104000      .104  -379956.07 410115.977 2577.05527 407538.922 -790072.05 382533.127 85.9018424
 104500     .1045  -402573.64 375072.653 2551.58571 372521.067  -777646.3 405125.229  85.052857
 105000      .105  -417144.82 332527.287 2535.64071 329991.646 -749672.11 419680.462 84.5213569
 105500     .1055  -426100.76 285675.558 2507.27097 283168.287 -711776.31 428608.027 83.5756991
 106000      .106  -430794.45 236294.918 2496.55336 233798.364 -667089.37 433291.006 83.2184453
 106500     .1065  -431296.93 185895.943 2473.67829 183422.265 -617192.87 433770.608 82.4559431
 107000      .107  -423289.76 132466.347 2404.15636 130062.191 -555756.11 425693.921 80.1385453
 107500     .1075  -403976.56 73611.6345 2345.71675 71265.9177 -477588.19 406322.277 78.1905583
 108000      .108  -375448.25 11537.6013 2342.41571 9195.18561 -386985.85 377790.662 78.0805235
 108500     .1085   -340174.4 -51755.269 2394.96705 -54150.236 -288419.13 342569.366 79.8322351
 109000      .109  -301632.78 -112506.93 2475.04839 -114981.98 -189125.85 304107.827 82.5016132
 109500     .1095  -260531.26 -169060.67 2547.33235   -171608. -91470.589 263078.589 84.9110784
 110000       .11   -217540.2 -219941.91 2536.32003 -222478.23 2401.71562 220076.518 84.5440011
 110500     .1105  -168997.45 -267796.37 2437.32707  -270233.7 98798.9206 171434.775 81.2442358
 111000      .111  -113880.97 -313923.97  2334.9912 -316258.96 200043.004 116215.957 77.8330399
 111500     .1115  -55271.446 -356210.18 2270.40175 -358480.58 300938.736 57541.8476 75.6800585
 112000      .112  3962.51152 -393028.21 2235.30718 -395263.52 396990.723 -1727.2043 74.5102394
 112500     .1125  60091.3326 -421436.95 2194.75039  -423631.7  481528.28 -57896.582 73.1583464
 113000      .113   112508.19  -440727.7 2105.39836  -442833.1 553235.889 -110402.79 70.1799454
 113500     .1135  160989.798 -450624.52 1942.68854 -452567.21 611614.319 -159047.11 64.7562847
 114000      .114  209101.999 -454228.39   1742.037 -455970.43 663330.388 -207359.96 58.0678999
 114500     .1145  256910.769 -452463.23 1574.93329 -454038.16 709373.999 -255335.84 52.4977765
 115000      .115  301315.543 -444172.86 1473.06155 -445645.92   745488.4 -299842.48 49.1020517
 115500     .1155  339672.627 -428445.48 1425.77652 -429871.25 768118.105 -338246.85 47.5258838
 116000      .116  369188.238 -403875.41 1408.84322 -405284.26 773063.652 -367779.39 46.9614406
 116500     .1165  389733.967 -370701.22 1374.48541 -372075.71  760435.19 -388359.48 45.8161804
 117000      .117  402677.899 -330097.93 1289.92709 -331387.86  732775.83 -401387.97 42.9975697
 117500     .1175   411628.37  -285648.4 1175.61996 -286824.02  697276.77 -410452.75 39.1873321
 118000      .118  416296.585 -238313.31 1091.51469 -239404.83 654609.899 -415205.07  36.383823
 118500     .1185  414525.237 -187829.28 1069.13874 -188898.42 602354.517  -413456.1  35.637958
 119000      .119  404410.884 -133712.55 1089.98815 -134802.54 538123.439  -403320.9 36.3329384
 119500     .1195  384817.889 -75889.919 1126.87265 -77016.792 460707.808 -383691.02 37.5624217
 120000       .12  356298.676 -15175.276 1128.27105 -16303.547 371473.951  -355170.4 37.6090349
 120500     .1205   321781.91 46115.4933 1068.21521 45047.2781 275666.417 -320713.69 35.6071735
 121000      .121  284823.567 104517.671 988.798871 103528.873 180305.896 -283834.77 32.9599624
 121500     .1215  245286.949 159556.877 951.214692 158605.662 85730.0725 -244335.73 31.7071564
 122000      .122  202091.726 211309.745 973.699444 210336.046 -9218.0191 -201118.03 32.4566481
 122500     .1225  153938.882 260370.593 1033.39515 259337.197 -106431.71 -152905.49  34.446505
 123000      .123   101088.08 306336.946 1107.46217 305229.484 -205248.87 -99980.618 36.9154058
 123500     .1235  44652.2871 348520.011 1155.55495 347364.456 -303867.72 -43496.732 38.5184982
 124000      .124  -11585.154 384459.655 1162.61181 383297.043 -396044.81 12747.7661 38.7537269
 124500     .1245  -64533.764 411758.022 1171.23153  410586.79 -476291.79 65704.9954 39.0410508
 125000      .125  -114503.28 430896.137 1218.81317 429677.324 -545399.41 115722.089 40.6271057
 125500     .1255   -162249.6 442478.991 1307.99146 441170.999 -604728.59 163557.593 43.5997154
 126000      .126  -208896.56 447761.941 1419.64927 446342.291  -656658.5 210316.208 47.3216424
 126500     .1265  -253673.44 446783.554 1527.75612 445255.798 -700456.99 255201.192 50.9252041
 127000      .127  -295372.39  439455.65 1595.54819 437860.101 -734828.04 296967.939 53.1849397
  % % % % % %   Suspended simulation;  plot data space exhausted;  SPY SPACE is required.   LIMBUF =  340000.
  % % % % % %   Suspended simulation;  plot data space exhausted;  SPY SPACE is required.   LIMBUF =  340000.
  +++  Time-sharing disabled.   Send  user-keyed interrupt to silence alarm.
   Current values.  INDBUF  INDBEG  LIMBUF  MFLUSH  NUMDCD  KCARD1  KCARD2
                    339994      50  340000    1002      46       1      50
Plot timespan now in memory (in sec) = 8.49839970E-02   1.27477000E-01
   ++++  Begin plot-data copy from memory to disk.   MFLUSH, INDBUF, N4, Tbeg,  Tend = 1003  339994       1  -1.00000E+00
1.00000E+19
 127500     .1275  -330463.93 423899.931 1616.57231 422283.359 -754363.86   332080.5 53.8857435
 128000      .128  -357085.34 399215.311 1633.35455 397581.956 -756300.66 358718.699 54.4451518
 128500     .1285  -376295.98 366891.885 1675.94733 365215.937 -743187.86 377971.927 55.8649111
 129000      .129  -389272.34 328455.168 1742.78229 326712.386  -717727.5 391015.117  58.092743
 129500     .1295  -397365.88 285823.202 1816.34486 284006.857 -683189.08 399182.221 60.5448288
 130000       .13  -400250.11 239704.833 1868.30329  237836.53 -639954.95 402118.417 62.2767762
 130500     .1305   -397049.5 190456.221 1873.70173 188582.519 -587505.72 398923.199 62.4567244
 131000      .131  -385240.48 136888.438 1842.96252 135045.475 -522128.91 387083.439 61.4320839
 131500     .1315  -364539.79 79348.3415 1818.76409 77529.5774 -443888.14 366358.558 60.6254697
 132000      .132   -336892.8 19860.5286 1822.41522 18038.1133 -356753.33 338715.219 60.7471741
 132500     .1325  -304227.66 -39506.092 1841.56076 -41347.652 -264721.56 306069.217 61.3853588
 133000      .133  -268194.11 -96835.386 1857.60679 -98692.993 -171358.72 270051.717 61.9202263
 133500     .1335   -229163.1 -151210.06 1844.87312 -153054.93 -77953.039 231007.969 61.4957706
 134000      .134  -186527.86 -202445.57 1787.22135 -204232.79 15917.7132 188315.079 59.5740451
 134500     .1345  -138809.58 -251528.79 1704.20332 -253232.99 112719.207 140513.784 56.8067772
 135000      .135  -86995.584 -297688.84 1633.20986 -299322.05 210693.253 88628.7936 54.4403286
 135500     .1355  -33501.354  -339207.1 1587.81238 -340794.92 305705.749 35089.1667 52.9270792
 136000      .136  19328.6345 -374289.77  1552.0726 -375841.85 393618.409 -17776.562 51.7357534
 136500     .1365  70024.9656 -401802.86 1509.62503 -403312.48 471827.823 -68515.341 50.3208342
 137000      .137  118038.511 -421342.52 1437.94277 -422780.46  539381.03 -116600.57 47.9314257
 137500     .1375  164158.547 -433590.15  1327.8208 -434917.97 597748.697 -162830.73 44.2606933
 138000      .138  209343.475 -439899.87 1207.83074  -441107.7 649243.341 -208135.64 40.2610247
 138500     .1385  252172.716 -439847.19  1112.9452 -440960.13 692019.902 -251059.77 37.0981734
 139000      .139  290527.497 -432592.12 1050.87126   -433643. 723119.621 -289476.63 35.0290419
 139500     .1395  322422.486 -417211.18  1004.2195  -418215.4 739633.669 -321418.27 33.4739834
 140000       .14  347186.919 -393721.71 954.928952 -394676.64 740908.629 -346231.99 31.8309651
 140500     .1405  364840.489   -362652. 882.488871 -363534.48 727492.485   -363958. 29.4162957
 141000      .141  376855.041 -325724.22 784.977432 -326509.19 702579.258 -376070.06 26.1659144
 141500     .1415  384286.022 -284725.82 694.848702 -285420.67 669011.839 -383591.17 23.1616234
 142000      .142  386064.515  -239780.7 640.036432 -240420.73 625845.212 -385424.48 21.3345477
 142500     .1425  380905.062 -190862.13 619.781055 -191481.91 571767.192 -380285.28 20.6593685
 143000      .143  367764.583 -137892.89 615.995474 -138508.89 505657.475 -367148.59 20.5331825
 143500     .1435  347015.655 -81723.029 609.272611 -82332.302 428738.684 -346406.38  20.309087
 144000      .144  319642.194 -23555.691 582.303879 -24137.995 343197.885 -319059.89 19.4101293
 144500     .1445  287884.484 34365.0411 539.282812 33825.7583 253519.443  -287345.2 17.9760937
 145000      .145  253037.506 90332.4284 511.632504 89820.7959 162705.078 -252525.87 17.0544168
 145500     .1455  214596.587 144093.205 520.494395 143572.711  70503.382 -214076.09 17.3498132
 146000      .146  172054.104 195517.794 559.588214 194958.206  -23463.69 -171494.52 18.6529405
 146500     .1465  125294.517 244439.189 611.756921 243827.432 -119144.67 -124682.76 20.3918974
 147000      .147  75391.2241 289973.066 657.273035 289315.793 -214581.84 -74733.951 21.9091012
 147500     .1475  24023.6051 330945.182 681.675902 330263.506 -306921.58 -23341.929 22.7225301
 148000      .148  -26312.204 365442.031 694.203391 364747.828 -391754.24  27006.407  23.140113
 148500     .1485  -74503.412 392565.953 723.541123 391842.411 -467069.37 75226.9536 24.1180374
 149000      .149  -120872.51 412593.032  784.16243 411808.869 -533465.54 121656.675 26.1387477
 149500     .1495  -165725.27 425974.803 864.805006 425109.998 -591700.08 166590.078 28.8268335
 150000       .15  -208822.55 432957.722 948.293859 432009.428 -641780.28 209770.848 31.6097953
 150500     .1505  -249111.97 433310.101  1015.8632 432294.238 -682422.08 250127.838 33.8621066
 151000      .151  -284924.58 426467.813  1056.8818 425410.932  -711392.4 285981.465 35.2293934
 151500     .1515  -314291.48 411453.145 1085.34204 410367.803 -725744.63 315376.827 36.1780682
 152000      .152  -336892.57 388552.249 1126.34287 387425.906 -725444.82 338018.916 37.5447622
 152500     .1525  -353462.58   358876.1  1187.8407 357688.259 -712338.68  354650.42   39.59469
 153000      .153  -364742.28 323692.268 1256.25198 322436.016 -688434.55 365998.531 41.8750662
 153500     .1535  -370779.12 283851.251  1315.9426 282535.308 -654630.37 372095.061 43.8647535
 154000      .154  -371115.65 239865.757 1351.40897 238514.349 -610981.41 372467.062 45.0469657
 154500     .1545  -364675.19 191791.237 1357.19617 190434.041 -556466.42 366032.382 45.2398723
 155000      .155  -350530.08 139539.422 1351.24094 138188.181  -490069.5 351881.324 45.0413648
 155500     .1555  -329432.42 84273.2057 1355.20228 82918.0034 -413705.62 330787.618 45.1734092
 156000      .156  -302798.59 27614.6948 1371.95007 26242.7447 -330413.29 304170.543  45.731669
 156500     .1565  -271976.46 -28791.535 1387.97537  -30179.51 -243184.92 273364.435 46.2658457
 157000      .157  -237500.41 -83909.998 1389.32892 -85299.326 -153590.41  238889.74 46.3109641
 157500     .1575  -199531.21 -137032.69 1364.01522  -138396.7 -62498.523 200895.227  45.467174
 158000      .158  -157620.96 -188039.94 1312.20843 -189352.15 30418.9847 158933.166 43.7402811
 158500     .1585  -111783.66 -236737.64 1254.42476 -237992.06 124953.975 113038.087 41.8141587
 159000      .159  -63514.863 -281875.53 1208.90211 -283084.44  218360.67 64723.7648 40.2967369
 159500     .1595  -14606.365 -322042.79 1174.25053 -323217.04 307436.428 15780.6155 39.1416844
 160000       .16  33413.7329 -356005.96 1137.72391 -357143.68 389419.691 -32276.009 37.9241304
 160500     .1605   79884.128 -383233.91 1087.08147   -384321. 463118.042 -78797.047 36.2360491
 161000      .161  124545.787 -403569.18 1014.05054 -404583.23 528114.963 -123531.74 33.8016845
 161500     .1615  167702.027 -417478.76 924.285204 -418403.04 585180.786 -166777.74 30.8095068
 162000      .162  208995.733  -425145.4 839.022209 -425984.42 634141.129 -208156.71  27.967407
 162500     .1625  246921.556 -425943.08 772.558462 -426715.64 672864.634   -246149. 25.7519487
 163000      .163  279963.803 -419249.19 719.931628 -419969.12 699212.993 -279243.87 23.9977209
 163500     .1635   307107.23 -404783.04 669.209814 -405452.25 711890.267 -306438.02 22.3069938
 164000      .164  328159.797 -382910.61 609.692169  -383520.3 711070.406  -327550.1 20.3230723
 164500     .1645  343407.204 -354381.86 535.996653 -354917.86 697789.067 -342871.21 17.8665551
 165000      .165  353567.173 -320456.29 457.545724 -320913.83  674023.46 -353109.63 15.2515241
 165500     .1655  358553.083  -281882.4 394.159952 -282276.56 640435.483 -358158.92 13.1386651
 166000      .166  357470.438 -238793.03 355.398484 -239148.43 596263.471 -357115.04 11.8466161
 166500     .1665  349573.967 -191347.89 333.193764 -191681.08 540921.856 -349240.77 11.1064588
 167000      .167  334783.367 -140111.28 315.764162 -140427.04 474894.644  -334467.6 10.5254721
 167500     .1675  313694.412 -86115.072 293.317594  -86408.39 399809.485 -313401.09 9.77725315
 168000      .168  287388.902  -30714.61 262.525639 -30977.136 318103.512 -287126.38 8.75085464
 168500     .1685  257143.978 24472.8002 234.924474 24237.8758 232671.178 -256909.05 7.83081579
 169000      .169  223309.687 78553.4983 227.554388 78325.9439 144756.189 -223082.13 7.58514626
 169500     .1695  185682.226 131134.863 244.863451    130890. 54547.3624 -185437.36 8.16211503
  % % % % % %   Suspended simulation;  plot data space exhausted;  SPY SPACE is required.   LIMBUF =  340000.
  % % % % % %   Suspended simulation;  plot data space exhausted;  SPY SPACE is required.   LIMBUF =  340000.
  +++  Time-sharing disabled.   Send  user-keyed interrupt to silence alarm.
   Current values.  INDBUF  INDBEG  LIMBUF  MFLUSH  NUMDCD  KCARD1  KCARD2
                    339994      50  340000    1003      46       1      50
Plot timespan now in memory (in sec) = 1.27476007E-01   1.69969000E-01
   ++++  Begin plot-data copy from memory to disk.   MFLUSH, INDBUF, N4, Tbeg,  Tend = 1004  339994       1  -1.00000E+00
1.00000E+19
 170000       .17  144248.639 181844.345 276.427561 181567.917 -37595.706 -143972.21 9.21425202
 170500     .1705  99688.6775 229932.168 310.448508 229621.719 -130243.49 -99378.229 10.3482836
 171000      .171  53148.5597 274392.635 338.031169 274054.604 -221244.08 -52810.529 11.2677056
 171500     .1715  6166.63301 313992.653 357.845023 313634.807 -307826.02  -5808.788 11.9281674
 172000      .172  -39830.945 347526.787 382.304516 347144.482 -387357.73 40213.2492 12.7434839
 172500     .1725  -84429.173 374634.936 425.033949 374209.902 -459064.11 84854.2074 14.1677983
 173000      .173  -127611.11 395372.561 485.833523 394886.728 -522983.67  128096.94 16.1944508
 173500     .1735  -169177.45 409831.589 553.131882 409278.457 -579009.04 169730.583 18.4377294
 174000      .174  -208321.13 417776.408  615.63131 417160.777 -626097.53 208936.757 20.5210437
 174500     .1745  -243963.54 418855.289 665.775678 418189.514 -662818.83 244629.316 22.1925226
 175000      .175  -274783.24 412553.223 704.597633 411848.626 -687336.46 275487.839 23.4865878
 175500     .1755   -299864.4 398608.214 744.798778 397863.415 -698472.62 300609.201 24.8266259
 176000      .176  -319293.44 377572.871 796.864038 376776.007 -696866.31 320090.306 26.5621346
 176500     .1765  -333440.42 350297.142 857.300497 349439.841 -683737.56 334297.722 28.5766832
 177000      .177  -342468.82 317587.095 914.774472  316672.32 -660055.92 343383.598 30.4924824
 177500     .1775  -346050.58 279930.844 959.443892   278971.4 -625981.43 347010.028 31.9814631
 178000      .178  -343694.77 237715.847 985.912139 236729.934 -581410.62 344680.682  32.863738
 178500     .1785  -334796.07 191165.543 998.150452 190167.392 -525961.61  335794.22 33.2716817
 179000      .179  -319346.51 140862.774 1009.05785 139853.716 -460209.29 320355.571 33.6352617
 179500     .1795  -298201.09 88029.7718 1026.56827 87003.2035 -386230.86 299227.655 34.2189425
 180000       .18  -272362.15 34017.7047 1045.37294 32972.3318 -306379.86 273407.523 34.8457647
 180500     .1805  -242527.74 -20029.363 1055.41648  -21084.78 -222498.37 243583.155 35.1805493
 181000      .181  -208979.54 -73319.883  1049.0897 -74368.973 -135659.66 210028.633 34.9696565
 181500     .1815  -171838.07 -125240.23 1023.72368 -126263.95 -46597.836 172861.789 34.1241227
 182000      .182  -131178.48 -175373.34 986.212845 -176359.55  44194.861 132164.689 32.8737615
 182500     .1825  -87729.292 -222932.05 949.311189 -223881.36 135202.759 88678.6031 31.6437063
 183000      .183  -42836.405 -266727.33 918.649979 -267645.98 223890.929 43755.0554  30.621666
 183500     .1835  2181.08749 -305615.66 888.107885 -306503.77 307796.751 -1292.9796 29.6035962
 184000      .184  46450.4842 -338823.12 849.248844 -339672.37 385273.604 -45601.235 28.3082948
 184500     .1845  89492.8353 -365954.73 796.745624 -366751.47 455447.561  -88696.09 26.5581875
 185000      .185  131048.907 -386874.61 730.540886 -387605.16 517923.522 -130318.37 24.3513629
 185500     .1855  170869.725 -401633.83 659.641594 -402293.47 572503.555 -170210.08 21.9880531
 186000      .186  208096.297  -409926.6 595.884382 -410522.48 618022.896 -207500.41 19.8628127
 186500     .1865   241521.88 -411237.17 542.412873 -411779.59 652759.052 -240979.47 18.0804291
 187000      .187  270137.781 -405207.95 492.590767 -405700.54 675345.734 -269645.19 16.4196922
 187500     .1875  293489.526 -391921.77 439.229765   -392361. 685411.301  -293050.3 14.6409922
 188000      .188  311500.506 -371799.68 378.647133 -372178.33 683300.189 -311121.86 12.6215711
 188500     .1885  324350.317 -345525.17 312.699863 -345837.87  669875.49 -324037.62 10.4233288
 189000      .189  332167.589 -313863.17 251.165346 -314114.33 646030.759 -331916.42 8.37217819
 189500     .1895  334540.015 -277201.37 203.893323 -277405.27 611741.389 -334336.12 6.79644411
 190000       .19   330909.34 -235800.25 171.141456 -235971.39 566709.593  -330738.2 5.70471521
 190500     .1905   321023.96 -190096.07 145.606298 -190241.67 511120.026 -320878.35 4.85354326
 191000      .191  305190.869 -140911.79 120.729373 -141032.52 446102.658 -305070.14 4.02431244
 191500     .1915   284032.68 -89289.891 93.6797342 -89383.571 373322.571   -283939. 3.12265781
 192000      .192  258381.582 -36443.089 67.3894907 -36510.478  294824.67 -258314.19 2.24631636
 192500     .1925  228893.531 16520.4291 51.1354901 16469.2936 212373.102  -228842.4 1.70451634
 193000      .193  195724.863 68921.8737 51.9724943 68869.9012  126802.99 -195672.89 1.73241648
 193500     .1935  158977.795 120217.724 67.2461441 120150.478  38760.071 -158910.55 2.24153814
 194000      .194  119081.133 169734.901 88.9950037 169645.906 -50653.768 -118992.14 2.96650012
 194500     .1945  76915.2805 216544.424 111.007885 216433.416 -139629.14 -76804.273 3.70026283
 195000      .195  33558.3789 259641.571 130.945455 259510.626 -226083.19 -33427.433  4.3648485
 195500     .1955   -9830.171 297985.023 152.355153 297832.667 -307815.19 9982.52613 5.07850511
 196000      .196  -52433.687 330825.092 183.385843 330641.706 -383258.78 52617.0731 6.11286142
 196500     .1965  -93918.786 357870.182 228.201642  357641.98 -451788.97 94146.9872 7.60672139
 197000      .197  -133992.94 378983.694 281.884839 378701.809 -512976.63 134274.822  9.3961613
 197500     .1975  -172075.47 393936.586 336.315378 393600.271 -566012.06 172411.787 11.2105126
 198000      .198   -207292.6 402361.013 385.919516 401975.094 -609653.61 207678.516 12.8639839
 198500     .1985  -238701.16 403903.139 429.136614 403474.002  -642604.3 239130.298 14.3045538
 199000      .199    -265427. 398268.074 470.206727 397797.867 -663695.07 265897.207 15.6735576
 199500     .1995  -287074.93 385552.034 516.228698 385035.805 -672626.97  287591.16 17.2076233
 200000       0.2  -303695.06 366256.385 569.064517 365687.321 -669951.45 304264.128 18.9688172
 200500     .2005  -315368.03 340993.132 622.697591 340370.435 -656361.17 315990.731 20.7565864
 201000      .201  -321920.81   310252.5 669.734158 309582.766 -632173.31 322590.546 22.3244719
 201500     .2015  -323012.42 274422.286 705.894413 273716.392 -597434.71 323718.314 23.5298138
 202000      .202  -318308.79 233896.128 731.034801 233165.093 -552204.91 319039.821 24.3678267
 202500     .2025  -307645.96 189141.459 750.401318 188391.057 -496787.42 308396.361 25.0133773
 203000      .203  -291377.27 140993.498 770.428566  140223.07 -432370.77 292147.696 25.6809522
 203500     .2035  -270198.75  90550.915  791.51983 89759.3952 -360749.67 270990.272 26.3839943
 204000      .204  -244769.53 38900.2141 807.711821 38092.5023 -283669.74 245577.242 26.9237274
 204500     .2045  -215481.78 -13085.414 813.111236 -13898.525 -202396.36 216294.889 27.1037079
 205000      .205  -182601.81 -64676.404 805.227094 -65481.631 -117925.41 183407.037 26.8409031
 205500     .2055  -146399.65 -115216.75 785.741363 -116002.49 -31182.901 147185.393 26.1913788
 206000      .206  -107337.93 -164017.05 760.951139   -164778. 56679.1281 108098.877  25.365038
 206500     .2065  -66323.809 -210124.19 736.768959 -210860.96 143800.382 67060.5777 24.5589653
 207000      .207  -24444.243 -252495.11 712.686479 -253207.79 228050.864 25156.9291  23.756216
 207500     .2075  17374.8137 -290244.38 683.392403 -290927.77 307619.189 -16691.421 22.7797468
 208000      .208   58525.586 -322790.26 644.691652 -323434.96  381315.85 -57880.894 21.4897217
 208500     .2085  98550.4057 -349748.51 595.815407 -350344.33 448298.918  -97954.59 19.8605136
 209000      .209  137038.344 -370880.28 540.055736 -371420.34 507918.626 -136498.29 18.0018579
 209500     .2095  173411.759  -385939.2 484.247739 -386423.45 559350.963 -172927.51 16.1415913
 210000       .21  206780.402 -394514.45 433.409882 -394947.86 601294.852 -206346.99 14.4469961
 210500     .2105   236242.96 -396228.27  386.13809 -396614.41 632471.228 -235856.82 12.8712697
 211000      .211  261182.136 -390948.18 337.688311 -391285.87 652130.321 -260844.45  11.256277
 211500     .2115  281334.113 -378861.64 285.128197 -379146.77 660195.753 -281048.98 9.50427324
 212000      .212  296611.644 -360348.29 228.800952 -360577.09 656959.932 -296382.84  7.6266984
  % % % % % %   Suspended simulation;  plot data space exhausted;  SPY SPACE is required.   LIMBUF =  340000.
  % % % % % %   Suspended simulation;  plot data space exhausted;  SPY SPACE is required.   LIMBUF =  340000.
  +++  Time-sharing disabled.   Send  user-keyed interrupt to silence alarm.
   Current values.  INDBUF  INDBEG  LIMBUF  MFLUSH  NUMDCD  KCARD1  KCARD2
                    339994      50  340000    1004      46       1      50
Plot timespan now in memory (in sec) = 1.69967994E-01   2.12461000E-01
   ++++  Begin plot-data copy from memory to disk.   MFLUSH, INDBUF, N4, Tbeg,  Tend = 1005  339994       1  -1.00000E+00
1.00000E+19
 212500     .2125  307003.949 -335925.72 172.836773 -336098.56  642929.67 -306831.11 5.76122576
 213000      .213  312346.693 -306059.87    123.692 -306183.57 618406.566   -312223. 4.12306668
 213500     .2135  312275.898 -271081.98  84.809171 -271166.79 583357.877 -312191.09 2.82697237
 214000      .214  306525.007 -231381.63 53.5958088 -231435.22 537906.633 -306471.41 1.78652696
 214500     .2145  295166.275  -187581.5 25.4374269 -187606.94 482747.774 -295140.84  .84791423
 215000      .215  278592.437 -140541.85  -2.028891 -140539.82  419134.29 -278594.47  -.0676297
 215500     .2155  257343.386 -91230.039 -28.086323 -91201.952 348573.424 -257371.47 -.93621078
 216000      .216  231993.717 -40653.604 -48.623976  -40604.98 272647.321 -232042.34 -1.6207992
 216500     .2165  202925.245 10340.0946 -58.394174 10398.4888  192585.15 -202983.64 -1.9464725
 217000      .217  170366.035  61076.114 -56.018929 61132.1329 109289.921 -170422.05 -1.8672976
 217500     .2175  134662.492 110871.039 -45.403783 110916.443 23791.4526  -134707.9 -1.5134594
 218000      .218  96462.7417 158891.905 -31.290975 158923.196 -62429.164 -96494.033 -1.0430325
 218500     .2185  56628.5608 204203.779 -15.891117  204219.67 -147575.22 -56644.452  -.5297039
 219000      .219  16077.0187 245883.352 1.51679982 245881.835 -229806.33 -16075.502 .050559994
 219500     .2195    -24347.1 283097.863 24.5854708 283073.277 -307444.96 24371.6852 .819515693
 220000       .22  -64068.455  315282.96 57.0588445 315225.901 -379351.42 64125.5143 1.90196148
 220500     .2205  -102673.32 342090.247 98.3566219 341991.891 -444763.57 102771.678 3.27855406
 221000      .221  -139664.65 363213.859 143.642375 363070.216 -502878.51 139808.295 4.78807916
 221500     .2215  -174334.93 378277.703  188.29273 378089.411 -552612.63  174523.22 6.27642435
 222000      .222   -205894.4 386910.113 230.386046 386679.727 -592804.51 206124.786 7.67953487
 222500     .2225  -233604.39 388827.476 270.835711  388556.64 -622431.87 233875.225 9.02785705
 223000      .223  -256912.27 383919.487 312.972601 383606.514 -640831.75  257225.24   10.43242
 223500     .2235  -275591.19  372377.66 359.348309 372018.312 -647968.85 275950.536  11.978277
 224000      .224  -289579.95 354590.406  408.11342 354182.292 -644170.36 289988.064 13.6037807
 224500     .2245  -298759.83 330972.924 454.315243 330518.609 -629732.76 299214.147 15.1438414
 225000      .225   -302878.3 301881.793  494.07971 301387.713  -604760.1 303372.384 16.4693237
 225500     .2255  -301688.42 267696.904 526.292879 267170.611 -569385.33 302214.715  17.543096
 226000      .226  -295052.92 228875.313 552.558888 228322.754 -523928.23 295605.477 18.4186296
 226500     .2265  -283075.63 186039.031 576.315669 185462.715 -469114.66 283651.943 19.2105223
 227000      .227  -266168.55 140044.221 599.494059 139444.727 -406212.77 266768.039 19.9831353
 227500     .2275  -244858.02 91843.6544 619.831753 91223.8227 -336701.68 245477.853 20.6610584
 228000      .228    -219582. 42324.9513 633.076106 41691.8752 -261906.95 220215.079 21.1025369
 228500     .2285  -190660.21 -7741.8997 636.667828 -8378.5675 -182918.31 191296.882 21.2222609
 229000      .229   -158426.3 -57623.601  630.73224 -58254.333  -100802.7 159057.032  21.024408
 229500     .2295  -123308.38 -106586.13 617.887382 -107204.02 -16722.247 123926.268 20.5962461
 230000       .23  -85949.129 -153804.15 601.912998 -154406.06 67855.0199  86551.042 20.0637666
 230500     .2305  -47202.673 -198343.55 584.460757 -198928.01 151140.878 47787.1335 19.4820252
 231000      .231  -7928.5728 -239307.85 563.375263 -239871.22 231379.277  8491.9481 18.7791754
 231500     .2315  31182.6842 -275978.28 535.466012 -276513.74 307160.961 -30647.218 17.8488671
 232000      .232  69594.7727 -307825.36 499.569644 -308324.93 377420.136 -69095.203 16.6523215
 232500     .2325  106805.751 -334428.43 457.000079 -334885.43  441234.18 -106348.75  15.233336
 233000      .233  142277.509 -355436.11 411.193501  -355847.3 497713.615 -141866.32   13.70645
 233500     .2335  175330.274  -370472.5 366.010286 -370838.51 545802.776 -174964.26 12.2003429
 234000      .234   205198.95  -379155.1 322.678706 -379477.78 584354.051 -204876.27 10.7559569
 234500     .2345   231230.27 -381230.23 279.115807 -381509.35 612460.501 -230951.15 9.30386024
 235000      .235  253015.957 -376678.21 232.966516 -376911.18 629694.167 -252782.99 7.76555052
 235500     .2355  270335.036 -365681.77 183.997284 -365865.77 636016.809 -270151.04 6.13324279
 236000      .236  283043.568 -348544.46 134.161204 -348678.62 631588.025 -282909.41 4.47204014
 236500     .2365  291000.326 -325636.58 87.0577932 -325723.64 616636.909 -290913.27 2.90192644
 237000      .237  293978.156 -297303.41 45.9829419 -297349.39 591281.566 -293932.17 1.53276473
 237500     .2375  291752.261 -263904.35 11.2721872 -263915.63 555656.614 -291740.99 .375739574
 238000      .238  284273.581 -225928.94 -19.463082 -225909.47 510202.518 -284293.04 -.64876942
 238500     .2385   271751.12 -184062.37 -48.277363 -184014.09 455813.486  -271799.4 -1.6092454
 239000      .239  254558.784 -139119.77 -75.150907 -139044.62 393678.553 -254633.93 -2.5050302
 239500     .2395     233132. -91967.306 -98.176534  -91869.13 325099.306 -233230.18 -3.2725511
 240000       .24  207884.056  -43453.94 -114.29608 -43339.644 251337.996 -207998.35 -3.8098692
 240500     .2405  179139.834 5665.76636 -121.37721 5787.14357 173474.068 -179261.21 -4.0459071
 241000      .241  147240.314 54676.4039 -120.33523 54796.7391 92563.9103 -147360.65 -4.0111742
 241500     .2415  112687.353 102802.157 -114.13149 102916.288 9885.19668 -112801.48 -3.8043831
 242000      .242  76176.0705  149174.48 -104.89021  149279.37 -72998.409 -76280.961 -3.4963404
 242500     .2425  38481.1325 192913.475 -92.751528 193006.226 -154432.34 -38573.884 -3.0917176
 243000      .243  362.726978 233195.366 -76.220368 233271.586 -232832.64 -438.94735 -2.5406789
 243500     .2435  -37520.576 269323.624 -53.092798 269376.717  -306844.2 37467.4832 -1.7697599
 244000      .244  -74646.682 300776.399 -22.542028 300798.941 -375423.08 74624.1399 -.75140093
 244500     .2445  -110515.77 327134.061 13.3814242 327120.679 -437649.83 110529.149 .446047474
 245000      .245  -144530.42 347987.712  51.322759 347936.389 -492518.13 144581.744 1.71075863
 245500     .2455  -176002.25 362928.362 89.1845004 362839.177 -538930.61  176091.43 2.97281668
 246000      .246    -204267.  371624.24 126.767127 371497.473 -575891.24  204393.77 4.22557089
 246500     .2465  -228763.35 373869.565 165.302592 373704.262 -602632.91 228928.652  5.5100864
 247000      .247   -249110.4 369645.084 206.359565 369438.724 -618755.48 249316.757 6.87865218
 247500     .2475  -265103.39 359126.721 249.852114 358876.869 -624230.11 265353.242 8.32840381
 248000      .248  -276590.98 342595.874 293.188479 342302.685 -619186.85 276884.169 9.77294929
 248500     .2485  -283374.49 320351.721  333.20559 320018.515 -603726.21 283707.699  11.106853
 249000      .249  -285239.18 292713.266 368.307312 292344.959 -577952.45 285607.487 12.2769104
 249500     .2495  -282055.04 260081.278 398.696238 259682.582 -542136.32 282453.736 13.2898746
 250000       .25  -273836.55 222969.051 425.802562 222543.248  -496805.6 274262.352 14.1934187
 250500     .2505  -260798.99 182045.605 451.055044 181594.549 -442844.59 261250.045 15.0351681
 251000      .251  -243314.68 138108.714  474.07625 137634.638  -381423.4 243788.757 15.8025417
 251500     .2515  -221784.67 91985.0674 492.451253 91492.6162 -313769.74  222277.12 16.4150418
 252000      .252  -196555.93 44451.3776 503.823952 43947.5536 -241007.31 197059.751 16.7941317
 252500     .2525  -167967.19 -3751.4743 507.558237 -4259.0325 -164215.72 168474.749 16.9186079
 253000      .253  -136429.42 -51870.937  504.65723 -52375.595 -84558.479 136934.073 16.8219077
 253500     .2535  -102469.52 -99120.381  497.09045 -99617.472 -3349.1373 102966.609 16.5696817
 254000      .254  -66761.778 -144650.62  486.47688 -145137.09 77888.8397 67248.2551  16.215896
 254500     .2545  -30054.496 -187598.52 472.549329 -188071.07 157544.023 30527.0453 15.7516443
  % % % % % %   Suspended simulation;  plot data space exhausted;  SPY SPACE is required.   LIMBUF =  340000.
  % % % % % %   Suspended simulation;  plot data space exhausted;  SPY SPACE is required.   LIMBUF =  340000.
  +++  Time-sharing disabled.   Send  user-keyed interrupt to silence alarm.
   Current values.  INDBUF  INDBEG  LIMBUF  MFLUSH  NUMDCD  KCARD1  KCARD2
                    339994      50  340000    1005      46       1      50
Plot timespan now in memory (in sec) = 2.12459996E-01   2.54953000E-01
   ++++  Begin plot-data copy from memory to disk.   MFLUSH, INDBUF, N4, Tbeg,  Tend = 1006  339994       1  -1.00000E+00
1.00000E+19
 255000      .255  6955.13479 -227183.41 453.471332 -227636.88 234138.543 -6501.6635 15.1157111
 255500     .2555  43680.4248 -262765.54 427.925804 -263193.47 306445.969 -43252.499 14.2641935
 256000      .256  79587.7423 -293815.29 396.295548 -294211.59 373403.036 -79191.447 13.2098516
 256500     .2565  114132.135 -319871.15 360.357947 -320231.51 434003.289 -113771.78 12.0119316
 257000      .257  146720.911 -340513.21 322.520126 -340835.73  487234.12 -146398.39 10.7506709
 257500     .2575  176702.586 -355342.15  284.47244 -355626.62 532044.736 -176418.11 9.48241467
 258000      .258   203453.56 -364033.02 245.992807 -364279.01 567486.577 -203207.57 8.19976025
 258500     .2585  226487.604 -366414.92  205.71407 -366620.63  592902.52 -226281.89 6.85713565
 259000      .259  245483.933 -362499.25 163.074998 -362662.32 607983.178 -245320.86 5.43583325
 259500     .2595  260217.394 -352429.67 119.060814 -352548.73 612647.067 -260098.33 3.96869381
 260000       .26  270501.375 -336437.75 75.7481186  -336513.5  606939.13 -270425.63 2.52493729
 260500     .2605   276150.32 -314805.69 35.4700191 -314841.16 590956.006 -276114.85 1.18233397
 261000      .261  276981.797 -287848.87 -.49351291 -287848.38 564830.669 -276982.29 -.01645043
 261500     .2615  272901.715 -255964.98 -32.720936 -255932.26 528866.694 -272934.44 -1.0906979
 262000      .262  263988.413 -219691.64 -62.542365  -219629.1 483680.052 -264050.96 -2.0847455
 262500     .2625  250486.147  -179703.9 -90.317373 -179613.58 430190.043 -250576.46 -3.0105791
 263000      .263  232724.701 -136750.58 -115.06513 -136635.51  369475.28 -232839.77 -3.8355043
 263500     .2635  211063.965 -91607.323 -135.01159 -91472.311 302671.288 -211198.98 -4.5003862
 264000      .264  185853.714 -45032.862 -148.46501 -44884.397 230886.577 -186002.18 -4.9488337
 264500     .2645   157445.28 2241.27653 -155.02245 2396.29898 155204.003  -157600.3 -5.1674148
 265000      .265  126268.497 49465.7294 -155.96531 49621.6947 76802.7679 -126424.46 -5.1988438
 265500     .2655  92888.6093 95833.0188 -152.93045 95985.9492 -2944.4095  -93041.54 -5.0976816
 266000      .266   57970.923 140500.928 -146.47514 140647.404 -82530.005 -58117.398 -4.8825047
 266500     .2665  22197.7497 182656.706  -135.9999 182792.706 -160458.96  -22333.75 -4.5333299
 267000      .267  -13783.743 221559.258 -120.34926 221679.608   -235343. 13663.3941 -4.0116419
 267500     .2675  -49397.793 256577.179 -98.699639 256675.879 -305974.97 49299.0934  -3.289988
 268000      .268  -84116.508 287183.586 -71.605764 287255.192 -371300.09  84044.902 -2.3868588
 268500     .2685  -117389.39 312908.004 -41.004322 312949.009  -430297.4 117348.391 -1.3668107
 269000      .269  -148607.68 333304.085 -8.7809991 333312.866 -481911.77 148598.904 -.29269997
 269500     .2695  -177155.52 347979.649 24.3453624 347955.304 -525135.17 177179.865  .81151208
 270000       .27  -202484.04 356647.976 58.6781918 356589.297 -559132.01 202542.716 1.95593973
 270500     .2705  -224153.63 359156.883 94.9101173 359061.973 -583310.52 224248.544 3.16367058
 271000      .271   -241855.8 355509.553 133.245661 355376.307 -597365.36  241989.05 4.44152202
 271500     .2715  -255373.39 345838.254 172.555992 345665.698 -601211.64 255545.946 5.75186639
 272000      .272  -264511.56 330348.211 210.716082 330137.495 -594859.77 264722.271 7.02386941
 272500     .2725  -269075.16 309287.291  246.02957 309041.262 -578362.45 269321.191 8.20098566
 273000      .273   -268922.4 282973.166 278.017456 282695.148 -551895.57 269200.419 9.26724852
 273500     .2735  -264020.93 251825.914 307.108931 251518.805 -515846.85 264328.044 10.2369644
 274000      .274   -254474.9 216382.008 333.987018 216048.021 -470856.91 254808.891 11.1329006
 274500     .2745  -240525.65 177294.953  358.74132 176936.212 -417820.61 240884.396  11.958044
 275000      .275  -222495.34 135290.982 380.248887 134910.733 -357786.33 222875.593 12.6749629
 275500     .2755  -200718.11 91108.2577 396.779536 90711.4782 -291826.37 201114.891 13.2259845
 276000      .276  -175526.53 45470.9297 407.316944 45063.6127 -220997.46 175933.843 13.5772315
 276500     .2765  -147300.56 -886.79466 412.035601 -1298.8303 -146413.77 147712.598   13.73452
 277000      .277  -116504.88 -47201.799 411.873183 -47613.673 -69303.083 116916.755 13.7291061
 277500     .2775   -83701.49 -92676.677 407.864288 -93084.541 8975.18702 84109.3542 13.5954763
 278000      .278  -49531.136  -136492.3  400.34542 -136892.65 86961.1646 49931.4815 13.3448473
 278500     .2785  -14647.079 -177858.75 388.573721 -178247.32 163211.666 15035.6532 12.9524574
 279000      .279  20347.9251   -216070. 371.521189 -216441.52 236417.923 -19976.404 12.3840396
 279500     .2795  54903.6303 -250516.84 349.022435 -250865.86  305420.47 -54554.608 11.6340812
 280000       .28  88477.0234  -280659.4 321.977179 -280981.38 369136.428 -88155.046 10.7325726
 280500     .2805  120506.818 -306010.97 291.844942 -306302.82  426517.79 -120214.97 9.72816473
 281000      .281  150408.346 -326131.06 259.981143 -326391.04 476539.405 -150148.37  8.6660381
 281500     .2815  177602.576 -340640.14    226.923 -340867.06 518242.713 -177375.65 7.56410002
 282000      .282  201580.726  -349264.2 192.247452 -349456.45 550844.927 -201388.48  6.4082484
 282500     .2825  221951.952 -351872.35 155.479347 -352027.83 573824.305 -221796.47 5.18264489
 283000      .283  238428.451 -348469.19 117.026783 -348586.21 586897.637 -238311.42 3.90089275
 283500     .2835  250779.068 -339158.46 78.1621689 -339236.62 589937.529 -250700.91 2.60540563
 284000      .284  258806.128 -324120.93 40.4774318 -324161.41 582927.061 -258765.65 1.34924773
 284500     .2845  262340.414 -303600.11 5.24247475 -303605.35 565940.525 -262335.17 .174749158
 285000      .285  261271.004 -277912.34 -27.195298 -277885.14  539183.34  -261298.2 -.90650994
 285500     .2855  255598.515 -247478.58 -57.323434 -247421.26 503077.099 -255655.84 -1.9107811
 286000      .286  245460.728 -212841.25   -85.5089 -212755.74 458301.975 -245546.24 -2.8502967
 286500     .2865  231098.906 -174636.82 -111.28718 -174525.53 405735.723 -231210.19 -3.7095726
 287000      .287  212808.107  -133552.5  -133.5444 -133418.95 346360.603 -212941.65 -4.4514802
 287500     .2875  190911.536 -90298.249 -151.06831 -90147.181 281209.785  -191062.6 -5.0356103
 288000      .288  165753.391 -45588.387 -163.14616 -45425.241 211341.778 -165916.54 -5.4382053
 288500     .2885  137725.472 -149.09215 -170.02273 20.9305793 137874.564 -137895.49 -5.6674243
 289000      .289  107306.474 45259.3122 -172.60655 45431.9188 62047.1615 -107479.08 -5.7535518
 289500     .2895  75066.4707 89840.4186 -171.52672 90011.9453 -14773.948 -75237.997 -5.7175572
 290000       .29  41619.9172 132798.845 -166.64008 132965.485 -91178.928 -41786.557 -5.5546693
 290500     .2905  7576.72222 173381.469 -157.32432 173538.794 -165804.75 -7734.0465  -5.244144
 291000      .291  -26483.034 210902.939 -143.01122  211045.95 -237385.97 26340.0228 -4.7670406
 291500     .2915  -60013.721 244758.377 -123.72432 244882.101  -304772.1 59889.9971 -4.1241439
 292000      .292  -92477.742 274410.317 -100.37781 274510.695 -366888.06 92377.3637  -3.345927
 292500     .2925  -123315.53 299367.063 -74.315583 299441.378 -422682.59 123241.215 -2.4771861
 293000      .293  -151954.24 319184.894 -46.434724 319231.328 -471139.13 151907.803 -1.5478241
 293500     .2935  -177857.06 333501.958 -16.895093 333518.853 -511359.02 177840.166 -.56316977
 294000      .294  -200563.27 342066.993 14.5163423 342052.477 -542630.26 200577.786 .483878076
 294500     .2945  -219705.63 344753.072 47.8819697  344705.19  -564458.7 219753.511 1.59606566
 295000      .295  -235004.86  341555.64 82.6855823 341472.954  -576560.5 235087.546 2.75618608
 295500     .2955  -246237.61 332567.345 117.673104 332449.672 -578804.95 246355.282  3.9224368
 296000      .296  -253208.89 317950.601 151.429285 317799.172 -571159.49 253360.316 5.04764284
 296500     .2965  -255764.61 297936.629 183.140363 297753.489 -553701.24 255947.751 6.10467878
 297000      .297  -253833.02 272848.342 212.702698 272635.639 -526681.36 254045.724 7.09008993
  % % % % % %   Suspended simulation;  plot data space exhausted;  SPY SPACE is required.   LIMBUF =  340000.
  % % % % % %   Suspended simulation;  plot data space exhausted;  SPY SPACE is required.   LIMBUF =  340000.
  +++  Time-sharing disabled.   Send  user-keyed interrupt to silence alarm.
   Current values.  INDBUF  INDBEG  LIMBUF  MFLUSH  NUMDCD  KCARD1  KCARD2
                    339994      50  340000    1006      46       1      50
Plot timespan now in memory (in sec) = 2.54952013E-01   2.97445000E-01
   ++++  Begin plot-data copy from memory to disk.   MFLUSH, INDBUF, N4, Tbeg,  Tend = 1007  339994       1  -1.00000E+00
1.00000E+19
 297500     .2975  -247449.54 243112.658 240.314385 242872.343  -490562.2 247689.855 8.01047949
 298000      .298  -236760.71 209259.645 266.004825 208993.641 -446020.36 237026.717  8.8668275
 298500     .2985  -222004.38 171904.855 289.240922 171615.614 -393909.24 222293.622 9.64136407
 299000      .299  -203469.79 131713.396 308.934787 131404.461 -335183.18 203778.722 10.2978262
 299500     .2995  -181469.76 89368.5105 324.080237 89044.4303 -270838.27  181793.84 10.8026746
 300000       0.3  -156352.65 45568.5673 334.367479 45234.1998 -201921.22  156687.02 11.1455826
 300500     .3005  -128532.22 1040.70817 340.135335 700.572833 -129572.93 128872.353 11.3378445
 301000      .301  -98497.807 -43457.792 341.939234 -43799.731 -55040.015 98839.7463 11.3979745
 301500     .3015  -66805.886 -87149.012  340.11521 -87489.127 20343.1252 67146.0016 11.3371737
 302000      .302  -34049.202 -129259.83 334.464626 -129594.29 95210.6239  34383.667 11.1488209
 302500     .3025  -813.56526 -169059.29 324.389778 -169383.68 168245.728 1137.95504 10.8129926
 303000      .303  32346.1993 -205884.97 309.539413 -206194.51 238231.171  -32036.66 10.3179804
 303500     .3035  64892.5501 -239140.28 290.259807 -239430.54 304032.827  -64602.29 9.67532688
 304000      .304  96282.9298 -268281.64 267.422369 -268549.06 364564.565 -96015.507 8.91407896
 304500     .3045  125967.104 -292817.41 241.987501  -293059.4 418784.518 -125725.12 8.06625004
 305000      .305  153400.937  -312315.9  214.60829 -312530.51 465716.836 -153186.33 7.15360967
 305500     .3055  178079.377 -326427.35 185.401335 -326612.76 504506.732 -177893.98 6.18004449
 306000      .306  199573.985 -334911.91 154.190307  -335066.1 534485.896 -199419.79  5.1396769
 306500     .3065  217545.668 -337651.28 121.121219 -337772.41 555196.953 -217424.55 4.03737396
 307000      .307   231723.67 -334633.36 86.9538263 -334720.31  566357.03 -231636.72 2.89846088
 307500     .3075  241883.768 -325932.71  52.801717 -325985.51 567816.475 -241830.97 1.76005723
 308000      .308   247844.65 -311701.96   19.71256 -311721.67 559546.606 -247824.94 .657085333
 308500     .3085  249479.168 -292171.81 -11.678142 -292160.13 541650.978 -249490.85 -.38927141
 309000      .309  246741.046 -267663.35 -41.280747 -267622.07 514404.396 -246782.33 -1.3760249
 309500     .3095  239689.417  -238601.5  -69.21974 -238532.28 478290.915 -239758.64 -2.3073247
 310000       .31  228485.388 -205509.61 -95.275869 -205414.34    433995. -228580.66 -3.1758623
 310500     .3105  213361.136  -168981.5 -118.73609 -168862.76 382342.632 -213479.87 -3.9578698
 311000      .311  194594.827 -129655.27 -138.70362 -129516.57 324250.102 -194733.53 -4.6234539
 311500     .3115  172502.338 -88197.907 -154.48269 -88043.425 260700.245 -172656.82 -5.1494231
 312000      .312  147443.269  -45299.32 -165.86323 -45133.457 192742.589 -147609.13 -5.5287743
 312500     .3125  119838.969  -1677.513 -173.15333 -1504.3596 121516.482 -120012.12 -5.7717777
 313000      .313  90183.4465 41918.1843 -176.78183 42094.9661 48265.2623 -90360.228 -5.8927275
 313500     .3135  59025.9715 84723.0825  -176.8167 84899.8992 -25697.111 -59202.788 -5.8938899
 314000      .314  26934.2905 125989.225 -172.93238 126162.157 -99054.934 -27107.223 -5.7644126
 314500     .3145   -5530.941 165010.445 -164.73896 165175.183 -170541.39 5366.20207 -5.4912988
 315000      .315  -37825.652 201136.439 -152.12032 201288.559 -238962.09  37673.532 -5.0706772
 315500     .3155  -69417.584 233775.834 -135.44996 233911.284 -303193.42  69282.134 -4.5149986
 316000      .316  -99772.537   262389.6 -115.52598 262505.126 -362162.14  99657.011 -3.8508659
 316500     .3165  -128351.13 286488.518 -93.135827 286581.654 -414839.65 128257.992 -3.1045276
 317000      .317  -154631.87 305648.807 -68.665892 305717.473 -460280.68 154563.209 -2.2888631
 317500     .3175   -178145.1 319537.139 -42.163729 319579.302 -497682.24 178102.937 -1.4054576
 318000      .318  -198491.89 327925.261 -13.666281 327938.927 -526417.15 198478.226 -.45554271
 318500     .3185  -215347.51 330693.547 16.5113166 330677.036 -546041.06 215364.024  .55037722
 319000      .319  -228450.96 327823.116 47.6282208 327775.487 -556274.07 228498.585 1.58760736
 319500     .3195  -237588.71 319380.491 78.6662401 319301.824  -556969.2 237667.376   2.622208
 320000       .32  -242591.61 305508.741 108.770047 305399.971 -548100.35 242700.378 3.62566824
 320500     .3205  -243354.88 286435.405 137.534976  286297.87 -529790.28 243492.414  4.5844992
 321000      .321  -239861.43 262484.378 164.868085  262319.51 -502345.81 240026.302 5.49560283
 321500     .3215  -232188.73 234076.446 190.671344 233885.775 -466265.18 232379.406 6.35571145
 322000      .322  -220501.16 201719.708 214.598071  201505.11 -422220.87 220715.761 7.15326903
 322500     .3225  -205030.22 165989.848 235.967706  165753.88 -371020.06 205266.183 7.86559018
 323000      .323  -186052.73 127506.397 253.976091 127252.421 -313559.13 186306.708  8.4658697
 323500     .3235  -163884.68 86918.4999 268.108568 86650.3914 -250803.18 164152.791 8.93695227
 324000      .324  -138894.68 44906.2568 278.319796  44627.937 -183800.94    139173. 9.27732654
 324500     .3245  -111515.27 2182.49431 284.834792 1897.65951 -113697.76 111800.105 9.49449308
 325000      .325  -82238.446 -40515.692 287.849168 -40803.541 -41722.754 82526.2953 9.59497227
 325500     .3255  -51598.658 -82443.623 287.325869 -82730.949 30844.9656 51885.9835 9.57752896
 326000      .326  -20146.667  -122873.2 282.965322 -123156.17 102726.534  20429.632 9.43217742
 326500     .3265  11574.1468 -161116.93 274.455754 -161391.38 172691.075 -11299.691 9.14852515
 327000      .327  43033.6979 -196539.46 261.834498  -196801.3 239573.162 -42771.863 8.72781661
 327500     .3275   73704.868 -228555.03 245.564376 -228800.59 302259.896 -73459.304 8.18547919
 328000      .328  103058.836 -256626.55 226.293542 -256852.85  359685.39 -102832.54 7.54311807
 328500     .3285  130574.138 -280273.12 204.579096  -280477.7 410847.261 -130369.56  6.8193032
 329000      .329  155755.755 -299083.66 180.723315 -299264.38 454839.411 -155575.03  6.0241105
 329500     .3295  178159.681 -312735.18 154.795334 -312889.98 490894.866 -178004.89 5.15984448
 330000       .33  197410.834 -321007.35    126.904 -321134.25 518418.184 -197283.93 4.23013335
[...]
Times of maxima :     .018273    .713976    .003364    .004554    .006397    .002821    .713647
             Random switching times for simulation number  296  :
                                   1  5.5801796E-02    2  5.4258744E-02    3  5.4176209E-02    4  1.0357663E-02    5  6.9853327E-01
                                   6  6.9869586E-01    7  6.9958808E-01

                   648577.186 -690166.28 -728843.23 .1123526E7 -987282.58 -.117418E7 2421.32591
Times of maxima :     .018117    .713985    .003364    .004554    .006397    .002821     .71366
             Random switching times for simulation number  297  :
                                   1  5.6055230E-02    2  5.4163897E-02    3  5.4929744E-02    4  9.5205641E-03    5  7.0046628E-01
                                   6  6.9931070E-01    7  6.9985771E-01

                   645240.042 -636519.07 -728843.23 .1123526E7 -987282.58 -.117418E7 2427.22713
Times of maxima :      .01812    .713993    .003364    .004554    .006397    .002821    .713788
             Random switching times for simulation number  298  :
                                   1  5.4402657E-02    2  5.4726493E-02    3  5.5809066E-02    4  1.1302849E-02    5  6.9999931E-01
                                   6  6.9999918E-01    7  7.0135056E-01

                   642799.267 -647055.83 -728843.23 .1123526E7 -987282.58 -.117418E7 2413.86697
Times of maxima :     .018323    .714055    .003364    .004554    .006397    .002821    .713883
             Random switching times for simulation number  299  :
                                   1  5.4359107E-02    2  5.5309833E-02    3  5.5354775E-02    4  9.7516764E-03    5  7.0067447E-01
                                   6  7.0174165E-01    7  7.0054964E-01

                   646982.579 -646728.33 -728843.23 .1123526E7 -987282.58 -.117418E7 2367.91854
Times of maxima :     .018117    .713747    .003364    .004554    .006397    .002821    .713699
             Random switching times for simulation number  300  :
                                   1  5.6212631E-02    2  5.5400460E-02    3  5.4330646E-02    4  9.8967378E-03    5  7.0009595E-01
                                   6  7.0031249E-01    7  6.9985806E-01

                   647720.937 -644100.03 -728843.23 .1123526E7 -987282.58 -.117418E7 2394.27439
Times of maxima :     .018139    .713707    .003364    .004554    .006397    .002821    .713923

 MAIN20 dumps OVER12 dice seed  SEEDSV =   3.0444871000000000E+09

Statistical output of  node  voltage   0.4287E+06 |              X0003AX0003BX0003C

1 ) -------------------------------------------------------------------------------------------------------------------------------
Statistical distribution of peak voltage at node  "X0003A".   The base voltage for per unit printout is  V-base = 4.28660705E+05
  Interval             voltage         voltage  in     Frequency    Cumulative               Per cent
    number         in per unit      physical units     (density)     frequency     .GE. current value
        29           1.4500000      6.21558022E+05             0             0          100.000000
        30           1.5000000      6.42991058E+05            24            24           92.000000
        31           1.5500000      6.64424093E+05           259           283            5.666667
        32           1.6000000      6.85857128E+05             7           290            3.333333
        33           1.6500000      7.07290163E+05             8           298             .666667
        34           1.7000000      7.28723199E+05             1           299             .333333
        35           1.7500000      7.50156234E+05             1           300             .000000
Summary of preceding table follows:       Grouped data     Ungrouped data
                                 Mean = 1.52600000E+00     1.51365083E+00
                             Variance = 7.34782609E-04     7.13994681E-04
                   Standard deviation = 2.71068738E-02     2.67206789E-02

2 ) -------------------------------------------------------------------------------------------------------------------------------
Statistical distribution of peak voltage at node  "X0003B".   The base voltage for per unit printout is  V-base = 4.28660705E+05
  Interval             voltage         voltage  in     Frequency    Cumulative               Per cent
    number         in per unit      physical units     (density)     frequency     .GE. current value
        28           1.4000000      6.00124987E+05             0             0          100.000000
        29           1.4500000      6.21558022E+05            11            11           96.333333
        30           1.5000000      6.42991058E+05            93           104           65.333333
        31           1.5500000      6.64424093E+05           122           226           24.666667
        32           1.6000000      6.85857128E+05            52           278            7.333333
        33           1.6500000      7.07290163E+05            16           294            2.000000
        34           1.7000000      7.28723199E+05             1           295            1.666667
        35           1.7500000      7.50156234E+05             0           295            1.666667
        36           1.8000000      7.71589269E+05             0           295            1.666667
        37           1.8500000      7.93022304E+05             0           295            1.666667
        38           1.9000000      8.14455340E+05             0           295            1.666667
        39           1.9500000      8.35888375E+05             0           295            1.666667
        40           2.0000000      8.57321410E+05             0           295            1.666667
        41           2.0500000      8.78754445E+05             3           298             .666667
        42           2.1000000      9.00187481E+05             2           300             .000000
Summary of preceding table follows:       Grouped data     Ungrouped data
                                 Mean = 1.52900000E+00     1.52938990E+00
                             Variance = 6.70635452E-03     6.34733993E-03
                   Standard deviation = 8.18923349E-02     7.96701947E-02

3 ) -------------------------------------------------------------------------------------------------------------------------------
  SUMMARY   SUMMARY   SUMMARY   SUMMARY   SUMMARY   SUMMARY   SUMMARY   SUMMARY   SUMMARY   SUMMARY   SUMMARY   SUMMARY   SUMMARY
3 ) -------------------------------------------------------------------------------------------------------------------------------
The following is a distribution of peak overvoltages among all output nodes of the last data card that have the same base voltage.
This distribution is for the maximum of the peaks at all output nodes with  V-base = 4.28660705E+05
  Interval             voltage         voltage  in     Frequency    Cumulative               Per cent
    number         in per unit      physical units     (density)     frequency     .GE. current value
        34           1.7000000      7.28723199E+05             0             0          100.000000
        35           1.7500000      7.50156234E+05           295           295            1.666667
        36           1.8000000      7.71589269E+05             0           295            1.666667
        37           1.8500000      7.93022304E+05             0           295            1.666667
        38           1.9000000      8.14455340E+05             0           295            1.666667
        39           1.9500000      8.35888375E+05             0           295            1.666667
        40           2.0000000      8.57321410E+05             0           295            1.666667
        41           2.0500000      8.78754445E+05             3           298             .666667
        42           2.1000000      9.00187481E+05             2           300             .000000
Summary of preceding table follows:       Grouped data     Ungrouped data
                                 Mean = 1.73033333E+00     1.70587326E+00
                             Variance = 1.69386845E-03     1.81436808E-03
                   Standard deviation = 4.11566331E-02     4.25953998E-02

Statistical output of branch voltage   0.4287E+06 |-1            X0003BX0003CX0003AX0003BX0003CX0003A

4 ) -------------------------------------------------------------------------------------------------------------------------------
Statistical distribution of peak voltage  for branch  "X0003A"  to  "X0003B".   Base voltage  for per unit output = 4.28660705E+05
  Interval             voltage         voltage  in     Frequency    Cumulative               Per cent
    number         in per unit      physical units     (density)     frequency     .GE. current value
        46           2.3000000      9.85919622E+05             0             0          100.000000
        47           2.3500000      1.00735266E+06           291           291            3.000000
        48           2.4000000      1.02878569E+06             0           291            3.000000
        49           2.4500000      1.05021873E+06             0           291            3.000000
        50           2.5000000      1.07165176E+06             0           291            3.000000
        51           2.5500000      1.09308480E+06             1           292            2.666667
        52           2.6000000      1.11451783E+06             2           294            2.000000
        53           2.6500000      1.13595087E+06             5           299             .333333
        54           2.7000000      1.15738390E+06             1           300             .000000
Summary of preceding table follows:       Grouped data     Ungrouped data
                                 Mean = 2.33350000E+00     2.31244699E+00
                             Variance = 2.39406355E-03     2.84861177E-03
                   Standard deviation = 4.89291687E-02     5.33723878E-02

5 ) -------------------------------------------------------------------------------------------------------------------------------
  SUMMARY   SUMMARY   SUMMARY   SUMMARY   SUMMARY   SUMMARY   SUMMARY   SUMMARY   SUMMARY   SUMMARY   SUMMARY   SUMMARY   SUMMARY
5 ) -------------------------------------------------------------------------------------------------------------------------------
A distribution of peak values among all output branches of the last data card that have the same base value follows.  This
statistical distribution is for the maximum of the peaks at all of these output branches having base  voltage  = 4.28660705E+05
  Interval             voltage         voltage  in     Frequency    Cumulative               Per cent
    number         in per unit      physical units     (density)     frequency     .GE. current value
        54           2.7000000      1.15738390E+06             0             0          100.000000
        55           2.7500000      1.17881694E+06           300           300             .000000
Summary of preceding table follows:       Grouped data     Ungrouped data
                                 Mean = 2.72500000E+00     2.73917124E+00
                             Variance = 1.52089415E-15     0.00000000E+00
                   Standard deviation = 3.89986429E-08     0.00000000E+00

Blank card ends statistical tabulation requests.  |BLANK STATISTICS

                                      Sample curve symbols : "A", "B", and "C"
                                      Theoretical curve symbol : "*"
                                      Common curve symbol : "X"

        Switch  "X0001B"  to  "X0002B"            Switch  "X0001A"  to  "X0002A"            Switch  "X0001C"  to  "X0002C"
1.32420000E+00   switchings per column          1.32420000E+00   switchings per column     1.32420000E+00   switchings per column
              Columns                                     Columns                                     Columns
          5   10   15   20   25   30                5   10   15   20   25   30                5   10   15   20   25   30
     +----+----+----+----+----+----+           +----+----+----+----+----+----+           +----+----+----+----+----+----+
    X                                         X                                         X
    X                                         X                                         X
    X                                         X                                         X
    *A                                        X                                         X
    |*A                                       B*                                        |*C
    |A*                                       | X                                       | X
    |   X                                     | B *                                     |   *  C
    |       X                                 |       X                                 |     C *
    |      A    *                             |           *B                            |       C   *
    |                 * A                     |                 *    B                  |                 *  C
    |                       *     A           |                       X                 |                       *    C
    |                      A    *             |                           *   B         |                    C      *
    |  5.5000E-02                 *     A     |  5.5000E-02              B  *           |  5.5000E-02                 *     C
    |                           *      A      |                         B *             |                         C *
    |                  A    *                 |                       * B               |                       *     C
    |               A *                       |                B*                       |            C    *
    |         A *                             |          B*                             |        C  *
    |       * A                               |       X                                 |       *  C
    |  A*                                     |   X                                     | C *
    | *A                                      | X                                       | X
    |X                                        |X                                        |*C
    X                                         *B                                        X
    X                                         X                                         X
    X                                         X                                         *C
    X                                         X                                         X
   Time (scale = 3.33333333E-04  Sec/line)   Time (scale = 3.33333333E-04  Sec/line)   Time  (scale = 3.33333333E-04  Sec/line)

        Switch  "X0003C"  to  "XX0009"            Switch  "X0001B"  to  "X0002B"            Switch  "X0001A"  to  "X0002A"
1.32420000E+00   switchings per column          1.32420000E+00   switchings per column     1.32420000E+00   switchings per column
              Columns                                     Columns                                     Columns
          5   10   15   20   25   30                5   10   15   20   25   30                5   10   15   20   25   30
     +----+----+----+----+----+----+           +----+----+----+----+----+----+           +----+----+----+----+----+----+
    X                                         X                                         X
    X                                         X                                         X
    X                                         X                                         X
    *A                                        X                                         * C
    |X                                        |X                                        |*C
    | *A                                      | X                                       | X
    |  A*                                     |  B*                                     |   X
    |      A*                                 |    B  *                                 |     C *
    |         A *                             |           *  B                          |          C*
    |                 * A                     |                B*                       |                 X
    |                       *     A           |                       *    B            |                       X
    |                           *    A        |                           *B            |                           * C
    |  1.0000E-02                 *A          |  7.0000E-01                 *   B       |  7.0000E-01                C*
    |                           *   A         |                           *  B          |                           *  C
    |                A      *                 |                   B   *                 |                    C  *
    |                 * A                     |            B    *                       |                 X
    |           X                             |         B *                             |           * C
    |     A *                                 |     B *                                 |       X
    A   *                                     |   *  B                                  |   *C
    A *                                       | X                                       C *
    A*                                        |*B                                       |*C
    *A                                        *B                                        X
    X                                         X                                         X
    X                                         *B                                        X
    X                                         X                                         X
   Time (scale = 3.33333333E-04  Sec/line)   Time (scale = 3.33333333E-04  Sec/line)   Time  (scale = 3.33333333E-04  Sec/line)

   Switch  "X0001C"  to  "X0002C"
     1.32420000E+00   switchings per column
              Columns
          5   10   15   20   25   30
     +----+----+----+----+----+----+
    X
    X
    *A
    X
    |X
    |A*
    | A *
    |       X
    |           *    A
    |          A      *
    |                       *    A
    |                         A *
    |  7.0000E-01                A*
    |                          A*
    |                       X
    |                 *  A
    |           *       A
    |    A  *
    |   X
    A *
    A*
    *A
    X
    *A
    X
   Time (scale = 3.33333333E-04  Sec/line)
 .... Questionable Kolmogorov-Smirnov test result = 4.79983461E-01
 .... Questionable Kolmogorov-Smirnov test result = 8.61125218E-01
 .... Questionable Kolmogorov-Smirnov test result = 6.22920778E-01
 .... Questionable Kolmogorov-Smirnov test result = 8.70941508E-02
 .... Questionable Kolmogorov-Smirnov test result = 7.08509700E-01
 .... Questionable Kolmogorov-Smirnov test result = 9.61921384E-01
 .... Questionable Kolmogorov-Smirnov test result = 7.92096056E-01

Actual List Sizes for the preceding solution follow.       11-Nov-18  11.00.00
   Size  1-10:    27    26    38     3   138    13    42  5298     0     0
   Size 11-20:     0     7 -9999 -9999 -9999     0     0     0    23  3252
   Size 21-30:    36   180 14781     0 -9999     9 -9999 -9999 -9999     0
Seconds for overlays  1-5  :     0.000     0.000     0.000  -- (CP: Wait; Real)
Seconds for overlays  6-11 :     0.000     0.000     0.000
Seconds for overlays 12-15 :     0.000     0.000     0.000
Seconds for time-step loop :     0.000     0.000     0.000
Seconds after DELTAT-loop  :     0.000     0.000     0.000
                               ---------------------------
                   Totals  :     0.000     0.000     0.000

