   ---   55   cards of disk file read into card cache cells  1   onward.
 <===> Done with  "/"-card sorting by data class.    Remember that the source file appears different from interpreted input data.
Alternative Transients Program (ATP),  F77 GNU Linux or DOS.  All rights reserved by Can/Am user group of Portland, Oregon, USA.
 Date (dd-mth-yy) and time of day (hh.mm.ss) = 11-Nov-18  11.00.00    Name of disk plot file, if any, is
Consult the 860-page ATP Rule Book of the Can/Am EMTP User Group in Portland,  Oregon, USA.  Source code date is
Total size of LABCOM tables = 16446853 INTEGER words.  31 VARDIM  List Sizes follow:  6002  10K  192K  900  420K  1200  15K
  120K  2250  3800  720  2K  72800  510  800K  800  90  254  800K  100K  3K  15K  192K  120  45K  260K  600  210K  1100  19  200K
--------------------------------------------------+--------------------------------------------------------------------------------
Descriptive interpretation of input data cards.   |  Input data card images are shown below, all 80 columns, character by character
                                                  0         1         2         3         4         5         6         7         8
                                                  012345678901234567890123456789012345678901234567890123456789012345678901234567890
--------------------------------------------------+--------------------------------------------------------------------------------
Comment card.   KOMPAR > 0.                       |C data:Caso0_ReEnergizacao_Convenc_RPI.atp
Marker card preceding new EMTP data case.         |BEGIN NEW DATA CASE
Comment card.   KOMPAR > 0.                       |C $DUMMY, XYZ000
Misc. data.     1.000E-06   1.000E+00   0.000E+00 |   1.E-6      1.
Misc. data.  500  1  0  0  1  0  0  1  300  0     |     500       1       0       0       1       0       0       1     300
Statistics data.      1    1    0    0    1    0  |       1       1       0       0       1      -1                               0
Series R-L-C.   5.000E+00  7.500E-02  0.000E+00   |  X0001AX0007A                5.   75.                                         0
Series R-L-C.   5.000E+00  7.500E-02  0.000E+00   |  X0001BX0007B                5.   75.                                         0
Series R-L-C.   5.000E+00  7.500E-02  0.000E+00   |  X0001CX0007C                5.   75.                                         0
Series R-L-C.   2.000E+02  0.000E+00  0.000E+00   |  X0007AX0001A              200.                                               0
Series R-L-C.   2.000E+02  0.000E+00  0.000E+00   |  X0007BX0001B              200.                                               0
Series R-L-C.   2.000E+02  0.000E+00  0.000E+00   |  X0007CX0001C              200.                                               0
Series R-L-C.   1.516E+00  1.608E+00  0.000E+00   |  X0003BXX0008            1.5155 1608.                                         0
Series R-L-C.   1.516E+00  1.608E+00  0.000E+00   |  X0003AXX0008            1.5155 1608.                                         0
Series R-L-C.   1.516E+00  1.608E+00  0.000E+00   |  X0003CXX0008            1.5155 1608.                                         0
Series R-L-C.   3.272E-01  3.472E-01  0.000E+00   |  XX0008                   .3272 347.2                                         0
Series R-L-C.   3.000E+01  0.000E+00  0.000E+00   |  XX0009                     30.                                               0
Series R-L-C.   1.000E+03  0.000E+00  0.000E+00   |  X0002AX0010A              1.E3                                               0
Series R-L-C.   1.000E+03  0.000E+00  0.000E+00   |  X0002BX0010B              1.E3                                               0
Series R-L-C.   1.000E+03  0.000E+00  0.000E+00   |  X0002CX0010C              1.E3                                               0
Dynamic $INCLUDE uses fixed RAM cache to delay.   |$INSERT, C:\SimulacaoATP\3\EXT1.pch
J. Marti line, mode  1   parameters begin.        |-1X0010AX0006C                2.  0.00              -2 3
J. Marti line, mode  2   parameters begin.        |-2X0010BX0006A                2.  0.00              -2 3
J. Marti line, mode  3   parameters begin.        |-3X0010CX0006B                2.  0.00              -2 3
TR(1,1 )...  0.667-0.707-0.317                    |  0.66668704 -0.70710678 -0.31743981
TI(1,1 )...  0.000 0.000 0.004                    |  0.00000000  0.00000000  0.00360196
TR(2,1 )...  0.333 0.000 0.894                    |  0.33285412  0.00000000  0.89350256
TI(2,1 )... -0.016 0.000 0.010                    | -0.01627623  0.00000000  0.00954818
TR(3,1 )...  0.667 0.707-0.317                    |  0.66668704  0.70710678 -0.31743981
TI(3,1 )...  0.000 0.000 0.004                    |  0.00000000  0.00000000  0.00360196
Dynamic $INCLUDE uses fixed RAM cache to delay.   |$INSERT, C:\SimulacaoATP\3\CONV2.pch
J. Marti line, mode  1   parameters begin.        |-1X0004AX0005C                2.  0.00              -2 3
J. Marti line, mode  2   parameters begin.        |-2X0004BX0005A                2.  0.00              -2 3
J. Marti line, mode  3   parameters begin.        |-3X0004CX0005B                2.  0.00              -2 3
TR(1,1 )...  0.667-0.707-0.317                    |  0.66668704 -0.70710678 -0.31743981
TI(1,1 )...  0.000 0.000 0.004                    |  0.00000000  0.00000000  0.00360196
TR(2,1 )...  0.333 0.000 0.894                    |  0.33285412  0.00000000  0.89350256
TI(2,1 )... -0.016 0.000 0.010                    | -0.01627623  0.00000000  0.00954818
TR(3,1 )...  0.667 0.707-0.317                    |  0.66668704  0.70710678 -0.31743981
TI(3,1 )...  0.000 0.000 0.004                    |  0.00000000  0.00000000  0.00360196
Dynamic $INCLUDE uses fixed RAM cache to delay.   |$INSERT, C:\SimulacaoATP\3\EXT3.pch
J. Marti line, mode  1   parameters begin.        |-1X0005AX0003A                2.  0.00              -2 3
J. Marti line, mode  2   parameters begin.        |-2X0005BX0003B                2.  0.00              -2 3
J. Marti line, mode  3   parameters begin.        |-3X0005CX0003C                2.  0.00              -2 3
TR(1,1 )...  0.667-0.707-0.317                    |  0.66668704 -0.70710678 -0.31743981
TI(1,1 )...  0.000 0.000 0.004                    |  0.00000000  0.00000000  0.00360196
TR(2,1 )...  0.333 0.000 0.894                    |  0.33285412  0.00000000  0.89350256
TI(2,1 )... -0.016 0.000 0.010                    | -0.01627623  0.00000000  0.00954818
TR(3,1 )...  0.667 0.707-0.317                    |  0.66668704  0.70710678 -0.31743981
TI(3,1 )...  0.000 0.000 0.004                    |  0.00000000  0.00000000  0.00360196
Dynamic $INCLUDE uses fixed RAM cache to delay.   |$INSERT, C:\SimulacaoATP\3\CONV4.pch
J. Marti line, mode  1   parameters begin.        |-1X0006AX0004C                2.  0.00              -2 3
J. Marti line, mode  2   parameters begin.        |-2X0006BX0004A                2.  0.00              -2 3
J. Marti line, mode  3   parameters begin.        |-3X0006CX0004B                2.  0.00              -2 3
TR(1,1 )...  0.667-0.707-0.317                    |  0.66668704 -0.70710678 -0.31743981
TI(1,1 )...  0.000 0.000 0.004                    |  0.00000000  0.00000000  0.00360196
TR(2,1 )...  0.333 0.000 0.894                    |  0.33285412  0.00000000  0.89350256
TI(2,1 )... -0.016 0.000 0.010                    | -0.01627623  0.00000000  0.00954818
TR(3,1 )...  0.667 0.707-0.317                    |  0.66668704  0.70710678 -0.31743981
TI(3,1 )...  0.000 0.000 0.004                    |  0.00000000  0.00000000  0.00360196
Blank card ending branches.  IBR, NTOT = 26  27   |BLANK BRANCH
Switch.   5.50E-02  1.00E-03  0.00E+00  3.33E+03  |  X0001BX0002B      .055      .001               3333.STATISTICS               0
Switch.   5.50E-02  1.00E-03  0.00E+00  3.33E+03  |  X0001AX0002A      .055      .001               3333.STATISTICS               0
Switch.   5.50E-02  1.00E-03  0.00E+00  3.33E+03  |  X0001CX0002C      .055      .001               3333.STATISTICS               0
Switch.   1.00E-02  1.00E-03  0.00E+00  0.00E+00  |  X0003CXX0009       .01      .001                    STATISTICS               1
Switch.   7.00E-01  1.00E-03  0.00E+00  0.00E+00  |  X0001BX0002B        .7      .001                    STATISTICS               0
Switch.   7.00E-01  1.00E-03  0.00E+00  0.00E+00  |  X0001AX0002A        .7      .001                    STATISTICS               0
Switch.   7.00E-01  1.00E-03  0.00E+00  0.00E+00  |  X0001CX0002C        .7      .001                    STATISTICS               0
Switch.   0.00E+00  6.98E-01  0.00E+00  0.00E+00  |  X0002AX0010A                .698                                             0
Switch.   0.00E+00  6.98E-01  0.00E+00  0.00E+00  |  X0002BX0010B                .698                                             0
Switch.   0.00E+00  6.98E-01  0.00E+00  0.00E+00  |  X0002CX0010C                .698                                             0
Switch.   7.10E-01  0.00E+00  0.00E+00  0.00E+00  |  X0002AX0010A       .71                                                       0
Switch.   7.10E-01  0.00E+00  0.00E+00  0.00E+00  |  X0002BX0010B       .71                                                       0
Switch.   7.10E-01  0.00E+00  0.00E+00  0.00E+00  |  X0002CX0010C       .71                                                       0
Blank card ending switches.   KSWTCH = 13.        |BLANK SWITCH
Source.   4.29E+05  6.00E+01  0.00E+00 -1.00E+00  |14X0007A  428660.705       60.                                     -1.      100.
Source.   4.29E+05  6.00E+01 -1.20E+02 -1.00E+00  |14X0007B  428660.705       60.     -120.                           -1.      100.
Source.   4.29E+05  6.00E+01 -2.40E+02 -1.00E+00  |14X0007C  428660.705       60.     -240.                           -1.      100.
Blank card ends electric sources.  KCONST = 3     |BLANK SOURCE

     Total network loss  P-loss  by summing injections =   2.051611151345E+08

Card of names for time-step loop output.          |  X0003AX0003BX0003C
Output voltage differences for pairs of A6 names  |-5X0003BX0003CX0003AX0003BX0003CX0003A
Blank card ending requests for output variables.  |BLANK OUTPUT

Column headings for the  7   EMTP output variables follow.  These are divided among the 5 possible classes as follows ....
  First  6     output variables are electric-network voltage differences (upper voltage minus lower voltage);
  Next   1     output variables are branch currents (flowing from the upper node to the lower node);
   Step      Time      X0003A     X0003B     X0003C     X0003B     X0003A     X0003C     X0003C
                                                        X0003C     X0003B     X0003A     XX0009
 ***      Phasor I(0) =  2.9280487E+00                     Switch  "X0001B"  to  "X0002B"  closed in the steady-state.
 ***      Phasor I(0) =  3.2038622E+02                     Switch  "X0001A"  to  "X0002A"  closed in the steady-state.
 ***      Phasor I(0) = -3.2059124E+02                     Switch  "X0001C"  to  "X0002C"  closed in the steady-state.
 ***                    Switch  "X0002A"  to  "X0010A"  closed  after  0.00000000E+00  sec.
 ***                    Switch  "X0002B"  to  "X0010B"  closed  after  0.00000000E+00  sec.
 ***                    Switch  "X0002C"  to  "X0010C"  closed  after  0.00000000E+00  sec.
      0       0.0  111311.226 -227294.56 112495.387 -339789.95 338605.785 1184.16087        0.0
    500     .5E-3  145631.623 -222641.62 74616.5114 -297258.13 368273.241 -71015.111        0.0
   1000     .1E-2  175361.382 -210389.33 33646.5462 -244035.88 385750.714 -141714.84        0.0
   1500     .0015  198180.254 -190867.77  -8376.284 -182491.48 389048.022 -206556.54        0.0
   2000      .002  572044.314 -138266.22 -497136.65 358870.434 710310.534 -.106918E7        0.0
   2500     .0025  572759.976 13315.0843  -618725.8 632040.888 559444.891 -.119149E7        0.0
   3000      .003   519453.06 149464.621 -708717.34 858181.965 369988.439 -.122817E7        0.0
   3500     .0035  434518.979 256868.702 -733634.27 990502.972 177650.277 -.116815E7        0.0
   4000      .004  327615.585 375689.146 -691072.36 .1066762E7 -48073.561 -.101869E7        0.0
   4500     .0045  204850.106 487528.612 -639009.48 .1126538E7 -282678.51 -843859.59        0.0
   5000      .005   51191.604 569356.695  -563065.8 .1132422E7 -518165.09  -614257.4        0.0
   5500     .0055   -248018.1  612215.68   -313557. 925772.677 -860233.78 -65538.899        0.0
   6000      .006    -464210. 580962.312 -86300.026 667262.339 -.104517E7  377909.97        0.0
   6500     .0065  -584456.61 520611.694 113442.782 407168.912 -.110507E7 697899.389        0.0
   7000      .007   -650243.8 444974.948 267298.579 177676.369 -.109522E7 917542.383        0.0
   7500     .0075  -676958.96 358341.891 358413.547 -71.655901  -.10353E7 .1035373E7        0.0
   8000      .008  -667760.94 249639.448 416281.849  -166642.4 -917400.39 .1084043E7        0.0
   8500     .0085  -619481.96 124831.803 453382.003  -328550.2 -744313.76 .1072864E7        0.0
   9000      .009    -492853. 4622.53872 418125.852 -413503.31 -497475.54 910978.855        0.0
   9500     .0095  -339741.96 -87064.149 350503.641 -437567.79 -252677.81 690245.604        0.0
  10000       .01  -211403.97 -150900.22 283858.724 -434758.95 -60503.749 495262.695        0.0
 ***                                                             Close switch  "X0003C"  to  "XX0009"  after  1.00010000E-02  sec.
  10500     .0105  -165718.88  -256726.6 22546.1637 -279272.76 91007.7149 188265.047  751.53879
  11000      .011  -86797.754 -296819.92 21590.5266 -318410.45 210022.166  108388.28 719.684219
  11500     .0115  -27188.983 -338009.04 22931.0151 -360940.05 310820.057 50119.9978 764.367171
  12000      .012  5861.25601 -377104.15 27250.8555 -404355.01 382965.409 21389.5995 908.361849
  12500     .0125   12921.294 -394483.31  31842.469 -426325.78 407404.602  18921.175 1061.41563
  13000      .013    12734.06 -413208.15  36452.007 -449660.16 425942.208  23717.947  1215.0669
  13500     .0135  -33976.656 -453442.35 42590.3633 -496032.71  419465.69  76567.019 1419.67878
  14000      .014  -68873.805 -536308.82 54472.4959 -590781.31 467435.014   123346.3 1815.74986
  14500     .0145  21503.5443 -512065.11 62251.5731 -574316.68  533568.65 40748.0289 2075.05244
  15000      .015  116390.462 -470573.74 62779.0629  -533352.8 586964.199 -53611.399 2092.63543
  15500     .0155  208103.101 -424262.29 56634.3683 -480896.66 632365.395 -151468.73 1887.81228
  16000      .016   313864.61 -369994.95 47521.0684 -417516.02 683859.563 -266343.54 1584.03561
  16500     .0165  427117.082 -297177.08  37303.272 -334480.36 724294.167 -389813.81  1243.4424
  17000      .017  538761.602 -196168.88 25476.2752 -221645.15 734930.478 -513285.33 849.209174
  17500     .0175  621685.288 -75464.777 13726.3792 -89191.156 697150.065 -607958.91 457.545975
  18000      .018  663700.508 65165.3162 6480.76054 58684.5556 598535.192 -657219.75 216.025351
  18500     .0185  667580.431 208674.992 1728.49686 206946.495 458905.439 -665851.93 57.6165621
  19000      .019  627805.083 337229.324 -5202.4792 342431.803 290575.759 -633007.56 -173.41597
  19500     .0195  546223.975 449609.291 -13749.283 463358.575 96614.6839 -559973.26 -458.30945
  20000       .02  426196.464 540450.947 -22830.815 563281.762 -114254.48 -449027.28 -761.02715
  20500     .0205  280770.852 603712.969 -31686.534 635399.503 -322942.12 -312457.39 -1056.2178
  21000      .021  124245.458  634341.89 -40070.819 674412.708 -510096.43 -164316.28  -1335.694
  21500     .0215  -37454.891 622837.871 -47011.641 669849.512 -660292.76 -9556.7503 -1567.0547
  22000      .022  -191594.83 574294.731 -51015.419 625310.151 -765889.57 140579.416  -1700.514
  22500     .0225  -319753.31 506901.911 -52253.979  559155.89 -826655.22 267499.328 -1741.7993
  23000      .023   -415062.6 429879.404 -51391.868 481271.272   -844942. 363670.732 -1713.0623
  23500     .0235   -478238.1 344521.657 -49124.998 393646.655 -822759.76 429113.106 -1637.4999
  24000      .024  -512704.09 253423.288 -45595.328 299018.616 -766127.38  467108.76 -1519.8443
  24500     .0245   -522471.7 161816.079 -40791.954 202608.034 -684287.78 481679.746 -1359.7318
  25000      .025  -512188.04 75423.9986 -34962.487 110386.486 -587612.04 477225.553 -1165.4162
  25500     .0255  -488892.38 -4095.0378 -28052.753 23957.7155 -484797.34 460839.626 -935.09178
  26000      .026  -457300.84 -76801.687 -19522.553 -57279.135 -380499.16 437778.292 -650.75176
  26500     .0265  -420813.34 -144602.34 -9298.3044 -135304.04   -276211. 411515.037 -309.94348
  27000      .027  -382153.87 -209803.27 1902.12236 -211705.39  -172350.6 384055.991 63.4040786
  27500     .0275  -341722.85 -273362.53 13208.4416 -286570.97 -68360.321 354931.295 440.281385
  28000      .028  -297823.33 -335181.68 23961.2512 -359142.93 37358.3476 321784.584 798.708375
  28500     .0285  -247325.56 -394004.24 33654.2044 -427658.45 146678.679 280979.769 1121.80681
  29000      .029  -187417.81 -447865.37 41813.8505 -489679.22 260447.562 229231.656 1393.79502
  29500     .0295  -117621.77 -494616.19 48166.7622 -542782.95 376994.419 165788.532 1605.55874
  30000       .03  -38197.979 -530451.47 52703.0012 -583154.47 492253.487 90900.9801 1756.76671
  30500     .0305  50736.7665 -549712.69 55464.6555 -605177.35  600449.46 4727.88894 1848.82185
  31000      .031  147735.842 -546835.67 56449.4325 -603285.11 694571.516 -91286.409 1881.64775
  31500     .0315  248642.689 -518392.91 55616.6769 -574009.58 767035.596 -193026.01 1853.88923
  32000      .032  347171.548 -463618.35 52961.4699 -516579.82 810789.899 -294210.08 1765.38233
  32500     .0325  436505.148 -383900.45 48534.2645 -432434.71 820405.594 -387970.88 1617.80882
  33000      .033  510347.914 -282565.41 42413.8209 -324979.23 792913.327 -467934.09 1413.79403
  33500     .0335  563263.848 -164922.77 34781.5487 -199704.32 728186.614  -528482.3 1159.38496
  34000      .034  591167.786 -37784.064 25986.2456  -63770.31  628951.85 -565181.54 866.208186
  34500     .0345  591674.139 91131.6965 16461.4106 74670.2859 500542.442 -575212.73 548.713685
  35000      .035  564427.764  213962.42 6596.06859 207366.352 350465.343  -557831.7 219.868953
  35500     .0355  511237.152 323656.627 -3297.2734   326953.9 187580.525 -514534.43 -109.90911
  36000      .036  435798.837 414737.352 -12940.475 427677.827 21061.4847 -448739.31 -431.34915
  36500     .0365  343173.263 483706.994 -22068.423 505775.418 -140533.73 -365241.69 -735.61411
  37000      .037  239025.783   528972.8 -30438.268 559411.068 -289947.02 -269464.05 -1014.6089
  37500     .0375  128916.573 550528.432 -37815.504 588343.936 -421611.86 -166732.08 -1260.5168
  38000      .038  18013.4994 549774.884 -43951.787  593726.67 -531761.38 -61965.286 -1465.0596
  38500     .0385  -89016.498 529365.273   -48593.5 577958.773 -618381.77 40422.9975 -1619.7833
  39000      .039  -188230.06 492760.151 -51514.851 544275.002 -680990.21 136715.208 -1717.1617
  39500     .0395  -276675.41 443503.297 -52550.984 496054.281 -720178.71 224124.427 -1751.6995
  40000       .04   -352439.4 384603.238 -51616.215 436219.453 -737042.64 300823.183 -1720.5405
  40500     .0405  -414405.51  318289.28  -48715.28  367004.56 -732694.79 365690.231 -1623.8427
  41000      .041  -461956.38 246049.851 -43950.155 290000.006 -708006.24 418006.229 -1465.0052
  41500     .0415   -494770.2 168804.923 -37507.611 206312.534 -663575.13 457262.592 -1250.2537
  42000      .042   -512680.4 87153.3881  -29632.52 116785.908 -599833.79 483047.878 -987.75066
  % % % % % %   Suspended simulation;  plot data space exhausted;  SPY SPACE is required.   LIMBUF =  340000.
  % % % % % %   Suspended simulation;  plot data space exhausted;  SPY SPACE is required.   LIMBUF =  340000.
  +++  Time-sharing disabled.   Send  user-keyed interrupt to silence alarm.
   Current values.  INDBUF  INDBEG  LIMBUF  MFLUSH  NUMDCD  KCARD1  KCARD2
                    339994      50  340000    1000      46       1      50
Plot timespan now in memory (in sec) = 0.00000000E+00   4.24930000E-02
   ++++  Begin plot-data copy from memory to disk.   MFLUSH, INDBUF, N4, Tbeg,  Tend = 1001  339994       1  -1.00000E+00
1.00000E+19
  42500     .0425  -515577.54 1665.06532 -20609.382 22274.4477  -517242.6 494968.155 -686.97941
  43000      .043  -503367.31 -86787.604 -10759.643 -76027.961  -416579.7 492607.663 -358.65476
  43500     .0435  -476004.09   -176701. -440.49156 -176260.51 -299303.09 475563.603 -14.683052
  44000      .044  -433596.47  -265712.4 9966.65556 -275679.06 -167884.07 443563.126 332.221852
  44500     .0445  -376558.72 -350566.54 20072.9384 -370639.48 -25992.184 396631.662 669.097946
  45000      .045  -305795.03  -427319.8 29497.6944  -456817.5 121524.769 335292.727 983.256479
  45500     .0455  -222869.58  -491721.4 37885.4587 -529606.86 268851.822  260755.04 1262.84862
  46000      .046  -130089.17 -539651.53  44925.344 -584576.88  409562.36 175014.515 1497.51147
  46500     .0465  -30465.738 -567539.96 50367.8228 -617907.78 537074.217 80833.5606 1678.92743
  47000      .047  72411.3939 -572753.23 54034.2697  -626787.5 645164.622 -18377.124 1801.14232
  47500     .0475  174548.156 -553938.47 55819.3454 -609757.82  728486.63 -118728.81 1860.64485
  48000      .048  271753.463 -511260.41 55688.7844 -566949.19 783013.871 -216064.68 1856.29281
  48500     .0485  359887.772 -446457.75 53673.7855 -500131.54 806345.525 -306213.99 1789.12618
  49000      .049  435129.609 -362702.42 49863.3181 -412565.74 797832.031 -385266.29  1662.1106
  49500     .0495  494220.606 -264302.07 44397.6162 -308699.68 758522.672 -449822.99 1479.92054
  50000       .05  534657.998 -156307.04 37464.7821 -193771.82 690965.039 -497193.22 1248.82607
  50500     .0505  554819.217 -44078.208 29298.4723 -73376.681 598897.425 -525520.74 976.615744
  51000      .051  554017.475  67137.345 20173.2946 46964.0505  486880.13 -533844.18 672.443152
  51500     .0515  532495.755  172579.97 10397.1223 162182.847 359915.786 -522098.63 346.570745
  52000      .052  491369.782 268260.833 301.766935 267959.066 223108.949 -491068.01 10.0588978
  52500     .0525  432528.753 351123.511 -9767.2402 360890.752 81405.2418 -442295.99 -325.57467
  53000      .053   358500.05 419070.544 -19461.953 438532.498 -60570.494   -377962. -648.73177
  53500     .0535  272290.206  470870.72 -28444.039 499314.759 -198580.51 -300734.24 -948.13463
  54000      .054   177223.59 505989.167 -36396.535 542385.702 -328765.58 -213620.12 -1213.2178
  54500     .0545  76798.5162 524390.993 -43034.746 567425.739 -447592.48 -119833.26 -1434.4915
  55000      .055  -25433.457 526359.704 -48116.307  574476.01 -551793.16  -22682.85 -1603.8769
  55500     .0555  -125971.38 512357.245 -51450.482 563807.727 -638328.62 74520.8954 -1715.0161
  56000      .056  -221457.95 482944.245  -52906.42 535850.664 -704402.19  168551.53 -1763.5473
  56500     .0565  -308762.02 438772.252 -52419.941 491192.193 -747534.28 256342.082 -1747.3314
  57000      .057  -385049.93 380646.506 -49998.313 430644.819 -765696.44 335051.617 -1666.6104
 ***                                                             Open  switch  "X0001B"  to  "X0002B"  after  5.72340000E-02  sec.
  57500     .0575  -447848.63 309640.383 -45722.083 355362.466 -757489.02 402126.551 -1524.0694
  58000      .058  -495105.48 227229.348 -39743.135 266972.483 -722334.83 455362.342 -1324.7712
  58500     .0585  -525246.65 135408.186 -32278.794  167686.98 -660654.83 492967.854 -1075.9598
  59000      .059  -538908.72 42155.6273 -23726.809 65882.4359 -581064.34 515181.909 -790.89362
 ***                                                             Open  switch  "X0001A"  to  "X0002A"  after  5.93130000E-02  sec.
  59500     .0595  -540725.97 -26536.734 -15267.902 -11268.831 -514189.23 525458.064 -508.93008
  60000       .06  -514278.21 -84465.195 -5318.2749  -79146.92 -429813.02 508959.936 -177.27583
 ***                                                             Open  switch  "X0001C"  to  "X0002C"  after  6.02010000E-02  sec.
  60500     .0605  -469753.24 -143159.73 4920.28972 -148080.02 -326593.52 474673.534 164.009657
  61000      .061  -410807.73 -203744.47 15114.0621 -218858.53 -207063.25 425921.787 503.802069
  61500     .0615   -375206.9 -262324.05 26409.7796 -288733.83 -112882.85 401616.682 880.325985
  62000      .062  -322415.44 -321886.65 34352.9349 -356239.59 -528.78797 356768.374 1145.09783
  62500     .0625  -239276.28  -351353.5 34159.5587 -385513.06 112077.224 273435.834 1138.65196
  63000      .063  -189613.84 -394136.52 29261.8737  -423398.4 204522.685 218875.712 975.395789
  63500     .0635  -120358.25 -427614.22  22733.362 -450347.59 307255.973 143091.613 757.778732
  64000      .064  -36597.538 -448466.95 16037.2111 -464504.16 411869.411 52634.7492 534.573704
  64500     .0645  48449.3249 -459677.05 8904.51748 -468581.57 508126.378 -39544.807 296.817249
  65000      .065  117986.824   -459264. 1745.34065 -461009.34 577250.822 -116241.48 58.1780218
  65500     .0655  187122.413 -468188.91 -5038.0762 -463150.83 655311.318 -192160.49 -167.93587
  66000      .066  215866.957 -491660.17 -9363.6009 -482296.57  707527.13 -225230.56 -312.12003
  66500     .0665  247823.014 -500108.36 -9316.7334 -490791.62  747931.37 -257139.75 -310.55778
  67000      .067   296193.59 -491755.34 -8100.3669 -483654.97 787948.927 -304293.96 -270.01223
  67500     .0675  349645.376 -470030.97  -6128.793 -463902.18  819676.35 -355774.17  -204.2931
  68000      .068  390483.173 -436489.63 -2644.5215 -433845.11   826972.8 -393127.69 -88.150718
  68500     .0685  422826.456 -388902.01  1974.2148 -390876.22 811728.466 -420852.24   65.80716
  69000      .069  451439.347 -342754.92 7401.80893 -350156.73 794194.269 -444037.54 246.726964
  69500     .0695  457501.445 -289131.15 12902.6927 -302033.84 746632.597 -444598.75 430.089756
  70000       .07  474822.012 -223024.32 15219.1322 -238243.45 697846.328 -459602.88 507.304407
  70500     .0705  477787.022 -166284.46  15017.564 -181302.02 644071.477 -462769.46 500.585467
  71000      .071  477321.866 -108360.25 13996.6374 -122356.89  585682.12 -463325.23 466.554581
  71500     .0715  465894.941 -35909.491 12447.5751 -48357.066 501804.432 -453447.37 414.919169
  72000      .072  450730.808 44631.8431 9898.08569 34733.7574 406098.965 -440832.72  329.93619
  72500     .0725  427743.306 117881.811 6771.05994 111110.751 309861.495 -420972.25 225.701998
  73000      .073  387841.304 189975.385 3541.32448 186434.061 197865.919 -384299.98 118.044149
  73500     .0735  336746.881 244318.288  517.65238 243800.636 92428.5924 -336229.23 17.2550793
  74000      .074  279198.966 286466.633 -855.69395 287322.327 -7267.6672 -280054.66 -28.523132
  74500     .0745   227868.69 326711.467 -1256.2065 327967.673 -98842.776  -229124.9  -41.87355
  75000      .075  166043.999 373141.366 -1516.7301 374658.096 -207097.37 -167560.73  -50.55767
  75500     .0755  101916.045 414081.607 -1089.1017 415170.709 -312165.56 -103005.15 -36.303389
  76000      .076  38818.8864 447266.545  501.51534  446765.03 -408447.66 -38317.371  16.717178
  76500     .0765  -27865.266 477967.074 2771.56618 475195.508 -505832.34 30636.8322 92.3855392
  77000      .077  -92537.915 492657.924 5441.77558 487216.148 -585195.84  97979.691 181.392519
  77500     .0775  -146893.52 498253.203  7454.9685 490798.234 -645146.72  154348.49  248.49895
  78000      .078  -199701.93 491125.635 8465.48584 482660.149 -690827.56 208167.412 282.182861
  78500     .0785  -258667.44 482525.612 8953.73026 473571.881 -741193.05 267621.171 298.457675
  79000      .079  -308364.09 467125.394 9087.75495 458037.639 -775489.48  317451.84 302.925165
  79500     .0795  -348867.87  450205.15 8664.26249 441540.888 -799073.02 357532.129  288.80875
  80000       .08  -385616.34 427296.036 7651.43982 419644.596 -812912.38 393267.784 255.047994
  80500     .0805  -412613.99 391053.624 6338.71889 384714.905 -803667.61 418952.708  211.29063
  81000      .081  -431195.94 341248.951 5019.71341 336229.238 -772444.89 436215.654  167.32378
  81500     .0815  -448656.38 281456.714 4187.23377  277269.48 -730113.09 452843.609 139.574459
  82000      .082  -461878.79 224125.773 3575.29641 220550.477 -686004.56 465454.088 119.176547
  82500     .0825  -462745.35 162530.091 2913.19162 159616.899 -625275.44 465658.542 97.1063874
  83000      .083  -458539.07 102229.745 2457.56309 99772.1824 -560768.82 460996.634 81.9187695
  83500     .0835  -445837.01 40869.8727  2563.4999 38306.3728 -486706.88 448400.511 85.4499966
  84000      .084  -419854.83 -23166.506 3132.60872 -26299.114 -396688.32 422987.438 104.420291
  84500     .0845  -384570.65  -91478.08 4148.04034 -95626.121 -293092.57 388718.692 138.268011
  % % % % % %   Suspended simulation;  plot data space exhausted;  SPY SPACE is required.   LIMBUF =  340000.
  % % % % % %   Suspended simulation;  plot data space exhausted;  SPY SPACE is required.   LIMBUF =  340000.
  +++  Time-sharing disabled.   Send  user-keyed interrupt to silence alarm.
   Current values.  INDBUF  INDBEG  LIMBUF  MFLUSH  NUMDCD  KCARD1  KCARD2
                    339994      50  340000    1001      46       1      50
Plot timespan now in memory (in sec) = 4.24919985E-02   8.49850000E-02
   ++++  Begin plot-data copy from memory to disk.   MFLUSH, INDBUF, N4, Tbeg,  Tend = 1002  339994       1  -1.00000E+00
1.00000E+19
  85000      .085  -346611.33 -156348.17 5221.77041 -161569.94 -190263.16 351833.099 174.059014
  85500     .0855  -306573.53  -215760.3  5834.4298 -221594.73 -90813.237 312407.963 194.480993
  86000      .086   -259607.1 -274855.78 6214.18868 -281069.97 15248.6866 265821.286 207.139623
  86500     .0865  -211335.18 -324105.19 6496.36393 -330601.56 112770.012 217831.546 216.545464
  87000      .087  -154727.76 -365968.74 6455.81088 -372424.55 211240.976 161183.576 215.193696
  87500     .0875  -91251.986 -403075.01 6073.56318 -409148.57  311823.02 97325.5493 202.452106
  88000      .088  -24520.587 -437213.67 5645.26938 -442858.94  412693.08 30165.8568 188.175646
  88500     .0885  36080.0297 -461660.87 5135.68643 -466796.56 497740.899 -30944.343 171.189548
  89000      .089    91715.96 -479129.02 4590.04304 -483719.06 570844.981 -87125.917 153.001435
  89500     .0895  147868.483 -490541.87 4090.65025 -494632.52 638410.356 -143777.83 136.355008
  90000       .09  198759.904 -489728.29 3516.93389 -493245.22 688488.192 -195242.97  117.23113
  90500     .0905  249151.998  -481591.7 2868.74933 -484460.45 730743.698 -246283.25 95.6249777
  91000      .091  298130.436  -467231.7 2486.89285 -469718.59 765362.131 -295643.54 82.8964284
  91500     .0915  344356.559 -446211.61 2510.77344 -448722.39 790568.172 -341845.79 83.6924479
  92000      .092  378505.142 -413856.97 2747.28089 -416604.25 792362.116 -375757.86 91.5760297
  92500     .0925  405022.435 -375174.08 3048.23872 -378222.32 780196.516  -401974.2 101.607957
  93000      .093  425253.723 -331580.73 3291.80793 -334872.54 756834.456 -421961.92 109.726931
  93500     .0935  435529.072 -280911.36 3457.90169 -284369.26 716440.429 -432071.17  115.26339
  94000      .094  441298.369 -227053.44 3562.67084 -230616.11 668351.808  -437735.7 118.755695
  94500     .0945  443618.206 -170009.29  3648.8869 -173658.18   613627.5 -439969.32 121.629563
  95000      .095   439438.71 -109813.82 3682.19984 -113496.02 549252.534 -435756.51 122.739995
  95500     .0955  422359.174 -44067.558 3626.47617 -47694.035 466426.733  -418732.7 120.882539
  96000      .096  398413.387 20862.3561 3492.60643 17369.7496 377551.031 -394920.78 116.420214
  96500     .0965   366326.49 84547.2919 3345.62349 81201.6684 281779.198 -362980.87 111.520783
  97000      .097   327005.89  147077.59 3166.96534 143910.624   179928.3 -323838.92 105.565511
  97500     .0975  285111.913 205297.513 2892.93212 202404.581    79814.4 -282218.98 96.4310705
  98000      .098  241421.128 258313.134 2629.97233 255683.161 -16892.006 -238791.16 87.6657442
  98500     .0985  192278.205 307706.495 2502.51502  305203.98 -115428.29 -189775.69 83.4171673
  99000      .099  136520.363 355614.405 2487.12467 353127.281 -219094.04 -134033.24 82.9041555
  99500     .0995  80197.2282 396030.818 2559.82345 393470.995 -315833.59 -77637.405 85.3274483
 100000       0.1  20946.3431 430314.237 2721.17764 427593.059 -409367.89 -18225.165 90.7059215
 100500     .1005  -38249.566 456747.866 2875.97747 453871.888 -494997.43 41125.5439 95.8659156
 101000      .101  -94381.991 473218.798 3000.63233 470218.165 -567600.79 97382.6238 100.021078
 101500     .1015    -146388. 479765.669 3198.89035 476566.778 -626153.67 149586.893 106.629678
 102000      .102  -197884.95 480492.487 3435.18391 477057.303 -678377.44 201320.138  114.50613
 102500     .1025  -247735.98 476266.984 3574.39167 472692.592 -724002.96  251310.37 119.146389
 103000      .103  -291443.38 462634.127 3657.59015 458976.537  -754077.5 295100.967 121.919672
 103500     .1035  -331635.78 442392.673 3729.14705 438663.526 -774028.45 335364.923 124.304902
 104000      .104  -365162.39 413521.334 3745.19296 409776.141 -778683.72 368907.581 124.839765
 104500     .1045  -390295.15 375644.236 3726.73826 371917.497 -765939.38 394021.885 124.224609
 105000      .105  -406916.73 329750.159 3725.72929  326024.43 -736666.88 410642.454 124.190976
 105500     .1055  -419684.28   280893.7 3691.09992 277202.601 -700577.98 423375.376 123.036664
 106000      .106  -426639.57 228969.781 3598.33842 225371.442 -655609.35 430237.904 119.944614
 106500     .1065    -424714. 172428.489 3534.77255 168893.716 -597142.49 428248.774 117.825752
 107000      .107  -416467.31 114478.429 3508.91744 110969.511 -530945.74 419976.229 116.963915
 107500     .1075  -399730.46 53444.6621 3477.69381 49966.9683 -453175.12 403208.154 115.923127
 108000      .108  -374266.63 -10266.044 3470.72841 -13736.773 -364000.59 377737.361 115.690947
 108500     .1085  -341781.77 -75044.733 3523.26669    -78568. -266737.03 345305.032 117.442223
 109000      .109  -307050.51 -135875.74 3574.57294 -139450.32 -171174.77 310625.086 119.152431
 109500     .1095  -267551.63 -193613.73 3580.31822 -197194.05 -73937.899 271131.951 119.343941
 110000       .11  -222530.22 -248020.37 3555.24648 -251575.61 25490.1509 226085.463 118.508216
 110500     .1105  -174312.14 -297110.35 3500.22652 -300610.58 122798.209 177812.367 116.674217
 111000      .111  -121675.16 -342247.16 3409.73134 -345656.89 220571.997 125084.894 113.657711
 111500     .1115  -65323.409 -383184.75 3336.43018 -386521.18 317861.341 68659.8393 111.214339
 112000      .112    -8371.07 -418119.89 3299.22007 -421419.11 409748.824   11670.29 109.974002
 112500     .1125  45291.2468 -443520.21 3221.39635 -446741.61 488811.456  -42069.85 107.379878
 113000      .113  98236.3927 -461575.04 3076.85382  -464651.9 559811.436 -95159.539 102.561794
 113500     .1135  149388.999 -471590.46 2908.66945 -474499.13 620979.458 -146480.33 96.9556484
 114000      .114  197783.311 -473090.61 2738.25597 -475828.87 670873.924 -195045.05  91.275199
 114500     .1145  244320.733 -467516.11 2566.03083 -470082.14 711836.841  -241754.7 85.5343611
 115000      .115  288141.806 -455471.93 2447.61111 -457919.54 743613.739 -285694.19 81.5870369
 115500     .1155  325614.507 -435466.32 2388.75499 -437855.07 761080.824 -323225.75 79.6251665
 116000      .116    354606.7 -406153.67 2320.25859 -408473.93 760760.367 -352286.44 77.3419528
 116500     .1165  378018.434 -370752.94 2236.55544  -372989.5 748771.378 -375781.88  74.551848
 117000      .117  394475.671 -328656.17 2161.86091 -330818.03 723131.837 -392313.81 72.0620304
 117500     .1175  404584.213 -280921.14 2076.91483 -282998.06 685505.357  -402507.3 69.2304944
 118000      .118  409294.905 -229368.69  1984.2949 -231352.98 638663.592 -407310.61 66.1431633
 118500     .1185  408310.391 -175198.66 1946.19143 -177144.85  583509.05  -406364.2 64.8730475
 119000      .119  398470.402 -117137.75 1953.42899 -119091.18 515608.151 -396516.97 65.1142996
 119500     .1195  379780.387 -55706.279 1941.96163 -57648.241 435486.667 -377838.43 64.7320545
 120000       .12  355392.839 5720.96051  1913.0103 3807.95021 349671.878 -353479.83   63.76701
 120500     .1205   324475.49 67435.1948 1879.85966 65555.3351 257040.295 -322595.63 62.6619886
 121000      .121   288761.78 127592.508 1826.43996 125766.068 161169.272 -286935.34  60.881332
 121500     .1215   249629.14 184594.703  1779.9386 182814.764 65034.4377  -247849.2 59.3312866
 122000      .122  207331.963 237559.292 1791.30763 235767.985 -30227.329 -205540.66 59.7102544
 122500     .1225  159502.812 287913.934  1835.1304 286078.803 -128411.12 -157667.68 61.1710133
 123000      .123  107828.894 334219.107 1866.03918 332353.068 -226390.21 -105962.85  62.201306
 123500     .1235  55137.6376 374063.527 1897.75665  372165.77 -318925.89 -53239.881  63.258555
 124000      .124  1303.62732 407848.616 1938.85708 405909.759 -406544.99 635.229752 64.6285692
 124500     .1245  -51520.306 434105.555 1970.03608 432135.519 -485625.86 53490.3417 65.6678694
 125000      .125  -101905.81 452083.051 2013.29675 450069.755 -553988.86 103919.105 67.1098915
 125500     .1255  -149898.64 461945.384 2097.79351  459847.59 -611844.03 151996.438 69.9264502
 126000      .126   -197271.2 465662.481 2191.07355 463471.407 -662933.69 199462.278  73.035785
 126500     .1265  -241584.48 461892.584 2263.93672 459628.647 -703477.07 243848.421 75.4645573
 127000      .127  -281108.94 449881.574  2330.5932 447550.981 -730990.51 283439.532 77.6864399
  % % % % % %   Suspended simulation;  plot data space exhausted;  SPY SPACE is required.   LIMBUF =  340000.
  % % % % % %   Suspended simulation;  plot data space exhausted;  SPY SPACE is required.   LIMBUF =  340000.
  +++  Time-sharing disabled.   Send  user-keyed interrupt to silence alarm.
   Current values.  INDBUF  INDBEG  LIMBUF  MFLUSH  NUMDCD  KCARD1  KCARD2
                    339994      50  340000    1002      46       1      50
Plot timespan now in memory (in sec) = 8.49839970E-02   1.27477000E-01
   ++++  Begin plot-data copy from memory to disk.   MFLUSH, INDBUF, N4, Tbeg,  Tend = 1003  339994       1  -1.00000E+00
1.00000E+19
 127500     .1275  -315763.96 430434.224 2390.21742 428044.007 -746198.18 318154.176 79.6739138
 128000      .128  -343932.15 403046.901 2425.84428 400621.057 -746979.06 346357.999 80.8614761
 128500     .1285  -364850.43 367952.329 2465.05264 365487.277 -732802.76 367315.487 82.1684215
 129000      .129  -379572.72 326643.512 2528.51953 324114.992 -706216.24 382101.244 84.2839843
 129500     .1295  -389633.21 281539.328 2579.44164 278959.887 -671172.54 392212.651  85.981388
 130000       .13  -392853.87 231756.881 2601.57328 229155.308 -624610.75 395455.442 86.7191092
 130500     .1305  -389041.53 177974.564  2613.9818 175360.582 -567016.09 391655.512 87.1327266
 131000      .131  -378409.14 121237.437 2615.83077 118621.606 -499646.58 381024.974 87.1943591
 131500     .1315  -360369.54 61832.0556 2599.91662 59232.1389 -422201.59 362969.453 86.6638872
 132000      .132   -335141.3 591.934439 2595.70822 -2003.7738 -335733.24 337737.011 86.5236075
 132500     .1325  -304925.67  -60183.06 2607.73292 -62790.792 -244742.61 307533.401 86.9244308
 133000      .133  -271184.79 -118387.65 2595.41682 -120983.07 -152797.13 273780.203  86.513894
 133500     .1335  -232469.96  -174720.1 2555.17538 -177275.28 -57749.852  235025.13 85.1725125
 134000      .134   -189772.9 -227957.29 2507.67687 -230464.97 38184.3871 192280.581 83.5892289
 134500     .1345  -143620.68 -277397.71 2447.86665 -279845.58 133777.025 146068.551 81.5955549
 135000      .135  -94271.438 -322722.43 2375.21511 -325097.65 228450.996 96646.6528 79.1738371
 135500     .1355  -42692.325 -363256.54 2317.52864 -365574.07 320564.218 45009.8541 77.2509546
 136000      .136  8315.85083 -396862.58 2268.36968 -399130.95 405178.428 -6047.4812 75.6123227
 136500     .1365  57732.7748 -422590.64 2193.12367 -424783.76 480323.415 -55539.651 73.1041223
 137000      .137  106497.307 -441432.49 2097.31899 -443529.81 547929.794 -104399.99 69.9106329
 137500     .1375  153309.019 -452632.52 1998.87282 -454631.39 605941.541 -151310.15 66.6290942
 138000      .138  197758.724 -456391.23 1892.47477  -458283.7 654149.953 -195866.25 63.0824923
 138500     .1385  239448.519 -453038.33 1787.69148 -454826.02 692486.852 -237660.83  59.589716
 139000      .139  277300.723 -442556.52 1710.05593 -444266.58 719857.248 -275590.67 57.0018642
 139500     .1395  308861.385  -423659.6 1644.43772 -425304.04 732520.984 -307216.95 54.8145906
 140000       .14  334126.552 -396903.41 1562.23336 -398465.64 731029.958 -332564.32 52.0744454
 140500     .1405  354001.091 -363765.66 1472.35309 -365238.02 717766.755 -352528.74 49.0784364
 141000      .141  367757.691  -324408.1 1388.48847 -325796.59 692165.787  -366369.2 46.2829489
 141500     .1415  375624.881  -279922.2 1305.89981  -281228.1 655547.084 -374318.98 43.5299937
 142000      .142  377729.431 -231349.71 1238.70986 -232588.42 609079.144 -376490.72 41.2903287
 142500     .1425  373392.494 -179210.67 1204.70653 -180415.38 552603.163 -372187.79 40.1568843
 143000      .143   361190.82 -123089.01 1181.39794 -124270.41 484279.832 -360009.42 39.3799314
 143500     .1435   342352.34 -64628.136 1147.27562 -65775.412 406980.476 -341205.06 38.2425205
 144000      .144  318022.968 -5412.5356 1113.50254 -6526.0382 323435.504 -316909.47 37.1167514
 144500     .1445  288408.704 53826.4659  1088.2254 52738.2405 234582.238 -287320.48 36.2741801
 145000      .145  254454.563 111717.876 1066.79687 110651.079 142736.687 -253387.77 35.5598958
 145500     .1455  216905.415 167073.013 1065.61269   166007.4 49832.4024  -215839.8  35.520423
 146000      .146   175492.08 219503.205 1095.42981 218407.775 -44011.125 -174396.65  36.514327
 146500     .1465  129858.404 269127.089  1130.6927 267996.396 -139268.68 -128727.71 37.6897565
 147000      .147  82050.5177 314164.684 1157.11651 313007.568 -232114.17 -80893.401 38.5705503
 147500     .1475  33260.1202 353622.522 1186.10279  352436.42  -320362.4 -32074.017 39.5367596
 148000      .148  -15728.457 386951.059 1219.88211 385731.176 -402679.52 16948.3394 40.6627371
 148500     .1485  -63730.996 413303.903 1255.31957 412048.583  -477034.9 64986.3158 41.8439855
 149000      .149  -109879.56 432113.413 1309.31644 430804.096 -541992.97 111188.871 43.6438813
 149500     .1495  -154485.59  443822.82   1384.522 442438.298 -598308.41 155870.115 46.1507334
 150000       .15  -197377.83  448863.98 1454.27851 447409.702 -646241.81 198832.104 48.4759502
 150500     .1505  -236550.02 446163.442 1510.58712 444652.855 -682713.46 238060.603  50.352904
 151000      .151   -271273.7 435773.341 1564.38787 434208.953 -707047.04 272838.091 52.1462622
 151500     .1515  -300905.41 417859.583 1614.11506 416245.468 -718764.99 302519.522 53.8038353
 152000      .152  -324697.62  392521.01 1659.41525 390861.595 -717218.63 326357.037 55.3138415
 152500     .1525  -342348.51 360168.849 1715.81158 358453.037 -702517.36 344064.322 57.1937195
 153000      .153  -354730.16  322231.44 1779.03516 320452.405  -676961.6 356509.193 59.3011721
 153500     .1535  -361765.48 279578.234 1825.53467 277752.699 -641343.72  363591.02 60.8511556
 154000      .154  -362230.42 232050.336 1853.99984 230196.336 -594280.75 364084.416 61.7999947
 154500     .1545  -356220.85 180568.268 1874.90027 178693.368 -536789.11 358095.747 62.4966756
 155000      .155    -343743. 125908.766 1885.28582  124023.48 -469651.77  345628.29 62.8428606
 155500     .1555  -324856.29 68840.7549 1888.42698  66952.328 -393697.04 326744.717  62.947566
 156000      .156  -300164.03  10431.158 1897.94466 8533.21337 -310595.19 302061.977 63.2648221
 156500     .1565  -271195.18 -47446.025 1904.86388 -49350.889 -223749.16 273100.044 63.4954626
 157000      .157  -238173.28 -103946.86 1890.70124 -105837.56 -134226.42 240063.981 63.0233748
 157500     .1575  -200817.43 -158801.49 1859.38587 -160660.87 -42015.943 202676.817 61.9795292
 158000      .158  -159910.01 -210955.89 1820.25767 -212776.15 51045.8774 161730.272 60.6752558
 158500     .1585   -116037.9 -259662.63 1770.78407 -261433.41 143624.726 117808.685 59.0261356
 159000      .159  -69853.059  -304229.3 1717.78098 -305947.08  234376.24 71570.8401  57.259366
 159500     .1595  -22590.082 -343671.18 1672.07161 -345343.25   321081.1 24262.1535 55.7357203
 160000       .16  24030.1358 -376539.39 1621.40756 -378160.79 400569.521 -22408.728 54.0469187
 160500     .1605  69794.5452 -402688.73 1552.79844 -404241.53 472483.276 -68241.747 51.7599479
 161000      .161  114499.681 -422146.89 1474.12245 -423621.01 536646.571 -113025.56 49.1374149
 161500     .1615  157273.919 -434499.08 1393.23151 -435892.31 591772.996 -155880.69 46.4410503
 162000      .162   197502.18 -439675.32 1308.84004 -440984.16 637177.496 -196193.34 43.6280012
 162500     .1625  234556.306 -437698.51 1230.09549 -438928.61 672254.819 -233326.21  41.003183
 163000      .163  267231.076  -428245.6  1163.9905 -429409.59 695476.673 -266067.09 38.7996834
 163500     .1635  294332.313  -410880.8 1096.42812 -411977.23 705213.112 -293235.88  36.547604
 164000      .164  316166.178 -386465.11 1019.38521 -387484.49 702631.285 -315146.79 33.9795069
 164500     .1645  332716.975 -355685.29 942.540959 -356627.84 688402.269 -331774.43  31.418032
 165000      .165  343654.871 -319024.33 871.162318  -319895.5 662679.204 -342783.71 29.0387439
 165500     .1655  348902.516 -277222.13 804.901882 -278027.03 626124.646 -348097.61 26.8300627
 166000      .166  348381.226 -231057.78 753.366262 -231811.15 579439.006 -347627.86 25.1122087
 166500     .1665  341453.229 -180850.76 718.752524 -181569.51 522303.991 -340734.48 23.9584175
 167000      .167  327908.494  -127081.9 686.045545 -127767.95 454990.397 -327222.45 22.8681848
 167500     .1675  308793.834 -71263.699 650.807477 -71914.507 380057.533 -308143.03 21.6935826
 168000      .168  284628.461 -14462.388  622.32475 -15084.713 299090.849 -284006.14 20.7441583
 168500     .1685  255822.012 42366.7485 602.905785 41763.8427 213455.264 -255219.11 20.0968595
 169000      .169  222957.708 98172.7932 592.931074 97579.8621 124784.915 -222364.78 19.7643691
 169500     .1695  186530.286 152005.168 600.859604 151404.308 34525.1181 -185929.43 20.0286535
  % % % % % %   Suspended simulation;  plot data space exhausted;  SPY SPACE is required.   LIMBUF =  340000.
  % % % % % %   Suspended simulation;  plot data space exhausted;  SPY SPACE is required.   LIMBUF =  340000.
  +++  Time-sharing disabled.   Send  user-keyed interrupt to silence alarm.
   Current values.  INDBUF  INDBEG  LIMBUF  MFLUSH  NUMDCD  KCARD1  KCARD2
                    339994      50  340000    1003      46       1      50
Plot timespan now in memory (in sec) = 1.27476007E-01   1.69969000E-01
   ++++  Begin plot-data copy from memory to disk.   MFLUSH, INDBUF, N4, Tbeg,  Tend = 1004  339994       1  -1.00000E+00
1.00000E+19
 170000       .17  146495.097 203478.717 623.912425 202854.804  -56983.62 -145871.18 20.7970808
 170500     .1705  103494.026  251860.41 647.288622 251213.122 -148366.38 -102846.74 21.5762874
 171000      .171  59000.8318 295786.384 669.296233 295117.088 -236785.55 -58331.536 22.3098744
 171500     .1715  13851.4013  334491.44 697.702152 333793.737 -320640.04 -13153.699 23.2567384
 172000      .172  -31174.562 367315.195  732.35564 366582.839 -398489.76 31906.9179 24.4118547
 172500     .1725  -75248.042 393642.111  774.31169   392867.8 -468890.15 76022.3533 25.8103897
 173000      .173  -117789.88 413104.602 830.002589 412274.599 -530894.48 118619.879  27.666753
 173500     .1735  -158706.37 425904.904 892.631697 425012.272 -584611.28 159599.004 29.7543899
 174000      .174   -197109.7 431759.836 948.986581 430810.849 -628869.54 198058.687  31.632886
 174500     .1745  -231757.06 430133.196  999.80705 429133.389 -661890.25 232756.866 33.3269017
 175000      .175  -262059.91   421081.4 1051.11101 420030.289 -683141.31 263111.023 35.0370338
 175500     .1755    -287506. 404751.846 1101.46331 403650.383 -692257.84 288607.459 36.7154435
 176000      .176  -307640.08 381380.554 1153.00691 380227.547 -689020.63 308793.083 38.4335636
 176500     .1765  -322405.05 351527.046 1210.21158 350316.834 -673932.09  323615.26 40.3403862
 177000      .177  -332091.39  316169.44 1264.04607 314905.394 -648260.83 333355.433 42.1348689
 177500     .1775  -336183.29 275680.507  1304.2452 274376.262  -611863.8 337487.539 43.4748401
 178000      .178  -334196.19 230425.764 1334.03459 229091.729 -564621.96 335530.226 44.4678195
 178500     .1785  -326212.83 181212.074 1358.23426 179853.839  -507424.9 327571.063 45.2744753
 179000      .179  -312393.43 128865.845 1375.61673 127490.228 -441259.27 313769.042 45.8538911
 179500     .1795  -292991.13  74244.012  1389.8358 72854.1762 -367235.14 294380.962 46.3278599
 180000       .18  -268711.42 18506.4916 1403.72087 17102.7707 -287217.91 270115.138 46.7906958
 180500     .1805  -240367.54 -37044.913 1407.79523 -38452.708 -203322.63 241775.338 46.9265077
 181000      .181  -207999.29 -91798.366 1395.58832 -93193.954 -116200.92 209394.876 46.5196105
 181500     .1815  -171891.39 -145045.57 1372.58997 -146418.16  -26845.82 173263.983  45.752999
 182000      .182  -132723.33 -195854.33 1342.89705 -197197.23 63130.9983 134066.227 44.7632351
 182500     .1825   -91192.94 -243376.67 1306.38054 -244683.05 152183.731  92499.321 43.5460182
 183000      .183   -48057.43 -286825.89 1267.98653 -288093.87 238768.458 49325.4165 42.2662175
 183500     .1835  -4467.1153 -325184.24  1228.9695 -326413.21 320717.127 5696.08484 40.9656499
 184000      .184  38617.7735 -357590.22 1180.55564 -358770.78 396207.998 -37437.218 39.3518547
 184500     .1845  80941.4794 -383866.57 1119.97568 -384986.55 464808.051 -79821.504 37.3325225
 185000      .185  121947.073 -403708.95 1054.07884 -404763.03  525656.02 -120892.99 35.1359613
 185500     .1855   160880.38 -416764.86 986.224685 -417751.08 577645.239 -159894.16 32.8741562
 186000      .186  197059.279 -422832.06 917.430499 -423749.49 619891.336 -196141.85 30.5810166
 186500     .1865  229790.872 -421802.94 853.032059 -422655.97 651593.814 -228937.84  28.434402
 187000      .187  258113.974 -413392.45 792.396547 -414184.84  671506.42 -257321.58 26.4132182
 187500     .1875  281520.488 -397677.82 727.727799 -398405.55 679198.311 -280792.76 24.2575933
 188000      .188  300076.764 -375284.22 659.007376 -375943.22  675360.98 -299417.76 21.9669125
 188500     .1885  313567.052 -346671.89 593.075095 -347264.96 660238.939 -312973.98 19.7691698
 189000      .189  321723.022 -312314.04  532.13578 -312846.18 634037.062 -321190.89 17.7378593
 189500     .1895  324404.595 -272812.08 477.728261 -273289.81 597216.679 -323926.87 15.9242754
 190000       .19  321458.476 -228790.14 434.290864 -229224.43 550248.617 -321024.19 14.4763621
 190500     .1905  312581.968 -180696.28 398.894025 -181095.17 493278.247 -312183.07 13.2964675
 191000      .191  298065.623 -129401.87 364.514955 -129766.38 427467.492 -297701.11 12.1504985
 191500     .1915  278567.216 -76081.071   332.6575 -76413.728 354648.286 -278234.56 11.0885833
 192000      .192  254474.349 -21670.538 308.902327  -21979.44 276144.887 -254165.45 10.2967442
 192500     .1925  226167.532 32926.4052 293.947065 32632.4581 193241.127 -225873.58  9.7982355
 193000      .193  194133.446  86773.691 289.179673 86484.5113 107359.755 -193844.27 9.63932243
 193500     .1935  158767.766 139056.578 297.184107 138759.394 19711.1875 -158470.58  9.9061369
 194000      .194  120390.823 189156.896 312.810329 188844.086 -68766.073 -120078.01  10.427011
 194500     .1945  79905.3378 236084.377 329.768213 235754.609 -156179.04  -79575.57 10.9922738
 195000      .195  38325.3839 278812.691  350.22461 278462.466 -240487.31 -37975.159 11.6741537
 195500     .1955  -3628.0002 316621.506 377.965562  316243.54 -320249.51 4005.96577 12.5988521
 196000      .196  -45277.446 348900.713 412.399663 348488.313 -394178.16 45689.8454 13.7466554
 196500     .1965  -85925.303 375106.519 454.585718 374651.933 -461031.82 86379.8887 15.1528573
 197000      .197  -125078.91 394943.406 505.083687 394438.322 -520022.31 125583.991 16.8361229
 197500     .1975  -162274.69 408287.492 557.320017 407730.172 -570562.18  162832.01 18.5773339
 198000      .198  -196582.51 414722.069 606.169159   414115.9 -611304.58 197188.679 20.2056386
 198500     .1985   -227193.8 413979.245 654.256471 413324.988 -641173.05 227848.059  21.808549
 199000      .199  -253617.51 406099.001 703.900152   405395.1 -659716.51 254321.407 23.4633384
 199500     .1995  -275457.61 391252.004 754.037399 390497.966 -666709.61 276211.648   25.13458
 200000       0.2  -292386.93  369707.44 805.741675 368901.698 -662094.37 293192.671 26.8580558
 200500     .2005  -304357.84  342012.73 858.110093  341154.62 -646370.57 305215.951 28.6036698
 201000      .201  -311285.52 308772.146 904.433812 307867.712 -620057.66 312189.951 30.1477937
 201500     .2015  -312755.22 270336.359 941.480603 269394.878 -583091.58 313696.701 31.3826868
 202000      .202  -308610.11 227253.954  972.55878 226281.395 -535864.06 309582.668  32.418626
 202500     .2025  -298985.14 180291.367 999.311994 179292.055  -479276.5 299984.449 33.3103998
 203000      .203  -284109.93 130276.724 1021.18123 129255.543 -414386.66 285131.115 34.0393745
 203500     .2035  -264317.12 78086.6074 1039.71667 77046.8908 -342403.73 265356.836 34.6572225
 204000      .204  -240197.39 24795.5069 1053.34799 23742.1589  -264992.9 241250.736 35.1115996
 204500     .2045  -212189.58 -28647.175 1056.40271 -29703.578 -183542.41 213245.984 35.2134238
 205000      .205  -180497.17 -81550.988 1048.01668 -82599.005 -98946.186 181545.191 34.9338892
 205500     .2055  -145594.91  -133085.5 1032.28933 -134117.79 -12509.404 146627.196 34.4096442
 206000      .206  -108155.67 -182343.46 1010.81118 -183354.27 74187.7839 109166.482 33.6937061
 206500     .2065  -68878.356 -228471.49 984.062694 -229455.55 159593.133 69862.4191 32.8020898
 207000      .207  -28533.374 -270648.54 954.122455 -271602.67 242115.169 29487.4962 31.8040818
 207500     .2075  11964.2808 -307986.75 919.198534 -308905.95 319951.034 -11045.082 30.6399511
 208000      .208  51990.2085 -339890.87 875.164101 -340766.03 391881.078 -51115.044 29.1721367
 208500     .2085   91107.692 -366021.97 823.310242 -366845.28 457129.658 -90284.382 27.4436747
 209000      .209  128678.802 -385979.52 768.135813 -386747.65 514658.321 -127910.67 25.6045271
 209500     .2095  163992.349  -399397.3 711.223343 -400108.52  563389.65 -163281.13 23.7074448
 210000       .21  196404.495 -406042.62 653.890648 -406696.51 602447.111  -195750.6 21.7963549
 210500     .2105  225254.504 -405749.42 598.194822 -406347.62 631003.928 -224656.31 19.9398274
 211000      .211  249881.383 -398382.13 542.016805 -398924.15 648263.518 -249339.37 18.0672268
 211500     .2115  270013.114 -384166.07 482.537809  -384648.6  654179.18 -269530.58 16.0845936
 212000      .212  285521.911 -363515.15 422.330984 -363937.48 649037.064 -285099.58 14.0776995
  % % % % % %   Suspended simulation;  plot data space exhausted;  SPY SPACE is required.   LIMBUF =  340000.
  % % % % % %   Suspended simulation;  plot data space exhausted;  SPY SPACE is required.   LIMBUF =  340000.
  +++  Time-sharing disabled.   Send  user-keyed interrupt to silence alarm.
   Current values.  INDBUF  INDBEG  LIMBUF  MFLUSH  NUMDCD  KCARD1  KCARD2
                    339994      50  340000    1004      46       1      50
Plot timespan now in memory (in sec) = 1.69967994E-01   2.12461000E-01
   ++++  Begin plot-data copy from memory to disk.   MFLUSH, INDBUF, N4, Tbeg,  Tend = 1005  339994       1  -1.00000E+00
1.00000E+19
 212500     .2125  296154.933 -336800.92 365.469434 -337166.39  632955.85 -295789.46 12.1823145
 213000      .213  301677.518  -304449.8 313.088216 -304762.88 606127.314 -301364.43 10.4362739
 213500     .2135  301972.867 -267008.35 266.619117 -267274.97 568981.217 -301706.25  8.8873039
 214000      .214  296926.861 -225037.33 227.247164 -225264.58 521964.192 -296699.61 7.57490548
 214500     .2145  286527.381 -179145.36 192.147349 -179337.51  465672.74 -286335.23 6.40491163
 215000      .215  271152.364 -130244.06 159.214878 -130403.27 401396.423 -270993.15  5.3071626
 215500     .2155   251241.49 -79294.057 131.247277 -79425.304 330535.547 -251110.24 4.37490925
 216000      .216  227131.127 -27157.092 111.104788 -27268.197 254288.219 -227020.02 3.70349292
 216500     .2165  199191.482 25314.3827 99.0328913 25215.3498   173877.1 -199092.45 3.30109638
 217000      .217  167880.768 77241.8196  95.890145 77145.9295 90638.9483 -167784.88 3.19633817
 217500     .2175  133619.899 127841.743 101.404975 127740.338 5778.15645 -133518.49 3.38016582
 218000      .218  96958.7982 176321.623 111.906878 176209.716 -79362.825 -96846.891 3.73022928
 218500     .2185  58737.1061 221719.718 125.623536 221594.094 -162982.61 -58611.483 4.18745121
 219000      .219  19733.9304 263180.602  144.92048 263035.681 -243446.67  -19589.01 4.83068266
 219500     .2195  -19411.191 300026.992  171.19949 299855.793 -319438.18   19582.39 5.70664966
 220000       .22  -58072.105 331672.597 203.836774  331468.76  -389744.7 58275.9422 6.79455913
 220500     .2205  -95623.112 357608.331 242.940461  357365.39 -453231.44 95866.0524 8.09801536
 221000      .221   -131544.8 377506.947 286.865535 377220.081 -509051.75 131831.666  9.5621845
 221500     .2215  -165211.86 391058.775 331.514685 390727.261 -556270.64 165543.378 11.0504895
 222000      .222   -195855.9 397904.099 375.586612 397528.513   -593760. 196231.482 12.5195537
 222500     .2225  -222884.46 397880.963 421.018235 397459.945 -620765.42 223305.477 14.0339412
 223000      .223  -245889.86 391032.035 468.185513 390563.849  -636921.9 246358.047 15.6061838
 223500     .2235  -264530.66  377513.47 516.156835 376997.313 -642044.13 265046.812 17.2052278
 224000      .224  -278549.12 357596.629 564.671234 357031.958 -636145.75 279113.795 18.8223745
 224500     .2245    -287830. 331730.603 611.394907 331119.208 -619560.61 288441.398 20.3798302
 225000      .225  -292168.99 300342.369 652.642941 299689.726 -592511.36 292821.638 21.7547647
 225500     .2255  -291335.04 263848.215 688.079183 263160.136 -555183.26 292023.124 22.9359728
 226000      .226  -285324.09 222847.295 719.646694 222127.648 -508171.38 286043.733 23.9882231
 226500     .2265   -274312.9 178081.237 747.475772 177333.761 -452394.14  275060.38 24.9158591
 227000      .227   -258547.1 130341.533 771.065467 129570.468 -388888.63 259318.162 25.7021822
 227500     .2275  -238377.62 80486.6536 790.340917 79696.3127 -318864.28 239167.964 26.3446972
 228000      .228  -214257.82 29452.8569  803.09023 28649.7667 -243710.67 215060.908 26.7696743
 228500     .2285  -186524.37 -21945.246 806.810196 -22752.056 -164579.12 187331.178 26.8936732
 229000      .229  -155528.45  -72939.91 802.499232 -73742.409 -82588.537 156330.946 26.7499744
 229500     .2295  -121813.43 -122673.56  792.45895 -123466.02 860.130158 122605.889 26.4152983
 230000       .23  -86032.108 -170263.66 777.149545 -171040.81 84231.5504 86809.2573 25.9049848
 230500     .2305  -48847.686 -214884.37 756.893947 -215641.26 166036.685 49604.5802 25.2297982
 231000      .231  -10981.643 -255730.59 732.036042 -256462.62 244748.946 11713.6786 24.4012014
 231500     .2315  26847.4586 -292052.34 700.900585 -292753.24 318899.797 -26146.558 23.3633528
 232000      .232  64097.9931  -323316.7  662.39637  -323979.1 387414.698 -63435.597  22.079879
 232500     .2325  100232.967 -349085.43 618.696424 -349704.13 449318.396 -99614.271 20.6232141
 233000      .233  134609.711 -368923.04 572.341075 -369495.38 503532.754 -134037.37 19.0780358
 233500     .2335  166578.749 -382465.09 524.132639 -382989.22 549043.837 -166054.62  17.471088
 234000      .234  195557.534 -389474.18 474.993363 -389949.18 585031.719 -195082.54 15.8331121
 234500     .2345  220976.298 -389785.33 425.382162 -390210.71  610761.63 -220550.92 14.1794054
 235000      .235  242379.565  -383370.9  373.99486  -383744.9 625750.467 -242005.57 12.4664953
 235500     .2355  259530.455 -370439.94 320.751163 -370760.69 629970.394  -259209.7 10.6917054
 236000      .236  272219.716 -351286.68 268.304967 -351554.98 623506.396 -271951.41 8.94349891
 236500     .2365  280205.537 -326230.13 218.873142   -326449. 606435.666 -279986.66 7.29577142
 237000      .237   283310.61 -295673.84 173.136868 -295846.97 578984.446 -283137.47 5.77122894
 237500     .2375  281460.567  -260129.3 131.957239 -260261.26 541589.867 -281328.61 4.39857464
 238000      .238  274630.154  -220152.3 95.2963107  -220247.6 494782.453 -274534.86 3.17654369
 238500     .2385  262962.315 -176424.99 61.7425925 -176486.73 439387.306 -262900.57 2.05808642
 239000      .239  246794.194 -129787.77 31.5394534 -129819.31 376581.966 -246762.65 1.05131511
 239500     .2395  226467.478 -81081.884 6.99557264 -81088.879 307549.362 -226460.48 .233185755
 240000       .24  202303.455 -31114.611  -10.59149  -31104.02 233418.066 -202314.05 -.35304967
 240500     .2405  174688.446 19289.2244 -21.158384 19310.3828 155399.221  -174709.6 -.70527947
 241000      .241  144076.431 69291.5477  -24.50902 69316.0567 74784.8833 -144100.94 -.81696735
 241500     .2415  110946.812 118095.104 -21.613372 118116.718 -7148.2926 -110968.43 -.72044574
 242000      .242  75922.3071 164852.506 -14.293265   164866.8 -88930.199   -75936.6 -.47644215
 242500     .2425  39726.7701 208687.991 -2.4432175 208690.434 -168961.22 -39729.213 -.08144058
 243000      .243   3016.1907 248836.365 15.4435792 248820.921 -245820.17 -3000.7471 .514785975
 243500     .2435  -33617.964 284650.577 39.5729687 284611.004 -318268.54 33657.5368 1.31909896
 244000      .244   -69575.69 315551.323 69.3010851 315482.022 -385127.01 69644.9907 2.31003617
 244500     .2445  -104271.25 341045.872 104.038853 340941.833 -445317.13 104375.292 3.46796175
 245000      .245  -137150.04 360753.385 141.986038 360611.399 -497903.43 137292.029 4.73286794
 245500     .2455  -167583.39  374310.83 181.102006 374129.728 -541894.22  167764.49 6.03673353
 246000      .246  -194955.64 381426.262 221.409435 381204.852 -576381.91 195177.054  7.3803145
 246500     .2465  -218796.04 381981.552 263.751635 381717.801  -600777.6 219059.796 8.79172117
 247000      .247  -238748.33 376010.783 307.639191 375703.143 -614759.11  239055.97 10.2546397
 247500     .2475  -254506.31 363645.925 352.137327 363293.788 -618152.23 254858.443 11.7379109
 248000      .248  -265846.26 345137.692 396.281249  344741.41 -610983.95 266242.541  13.209375
 248500     .2485  -272608.85 320842.706 438.037612 320404.669 -593451.55 273046.884 14.6012537
 249000      .249  -274613.44 291134.933 475.739213 290659.194 -565748.38 275089.181 15.8579738
 249500     .2495  -271764.56 256472.153 509.762656  255962.39 -528236.71  272274.32 16.9920885
 250000       .25   -264137.9 217458.003 540.812491 216917.191  -481595.9  264678.71  18.027083
 250500     .2505  -251925.24 174796.203  568.39227 174227.811 -426721.45 252493.636  18.946409
 251000      .251  -235377.04 129236.031 591.889711 128644.141 -364613.07 235968.926  19.729657
 251500     .2515  -214831.36 81590.1038 610.552063 80979.5517 -296421.46  215441.91 20.3517354
 252000      .252  -190661.99 32689.1019 622.798409 32066.3035 -223351.09 191284.789  20.759947
 252500     .2525  -163218.75 -16687.775 627.903129 -17315.678 -146530.98 163846.654 20.9301043
 253000      .253  -132934.97 -65741.405 626.980854 -66368.385 -67193.561 133561.947 20.8993618
 253500     .2535  -100370.35 -113622.48 621.040104 -114243.52 13252.1337 100991.388 20.7013368
 254000      .254  -66139.435 -159488.35 610.073467 -160098.43 93348.9175 66749.5089 20.3357822
 254500     .2545  -30865.512  -202546.2 594.136366 -203140.33 171680.684 31459.6489 19.8045455
  % % % % % %   Suspended simulation;  plot data space exhausted;  SPY SPACE is required.   LIMBUF =  340000.
  % % % % % %   Suspended simulation;  plot data space exhausted;  SPY SPACE is required.   LIMBUF =  340000.
  +++  Time-sharing disabled.   Send  user-keyed interrupt to silence alarm.
   Current values.  INDBUF  INDBEG  LIMBUF  MFLUSH  NUMDCD  KCARD1  KCARD2
                    339994      50  340000    1005      46       1      50
Plot timespan now in memory (in sec) = 2.12459996E-01   2.54953000E-01
   ++++  Begin plot-data copy from memory to disk.   MFLUSH, INDBUF, N4, Tbeg,  Tend = 1006  339994       1  -1.00000E+00
1.00000E+19
 255000      .255  4799.23495 -242036.07  572.99013 -242609.06 246835.303 -4226.2448  19.099671
 255500     .2555   40246.368 -277291.49 545.821249 -277837.31 317537.856 -39700.547 18.1940416
 256000      .256  74937.6515 -307775.89 512.969012 -308288.85 382713.537 -74424.682 17.0989671
 256500     .2565  108304.283 -333006.97 476.234768  -333483.2 441311.249 -107828.05 15.8744923
 257000      .257  139735.472 -352543.31 436.927741 -352980.23 492278.778 -139298.54  14.564258
 257500     .2575  168652.753 -366036.97 395.510946 -366432.48 534689.719 -168257.24 13.1836982
 258000      .258  194536.948 -373253.76 352.526692 -373606.29 567790.707 -194184.42 11.7508897
 258500     .2585  216915.682 -374053.71 308.049282 -374361.76 590969.397 -216607.63 10.2683094
 259000      .259  235437.452 -368448.47 261.810876 -368710.28 603885.924 -235175.64 8.72702919
 259500     .2595  249860.147 -356597.88 214.801469 -356812.68 606458.027 -249645.35 7.16004896
 260000       .26  259958.253 -338730.91 168.990097  -338899.9 598689.165 -259789.26 5.63300322
 260500     .2605  265528.949 -315138.19 125.548634 -315263.74 580667.143  -265403.4 4.18495448
 261000      .261  266456.038 -286211.25 84.9516699  -286296.2  552667.29 -266371.09 2.83172233
 261500     .2615  262712.936 -252436.95 47.6665376 -252484.61 515149.881 -262665.27 1.58888459
 262000      .262  254355.636 -214377.43 13.5626985   -214391. 468733.068 -254342.07 .452089949
 262500     .2625  241581.868 -172713.93 -17.601994 -172696.33 414295.802 -241599.47 -.58673315
 263000      .263  224684.366 -128209.32 -44.838193 -128164.48 352893.686  -224729.2 -1.4946064
 263500     .2635  203967.599 -81632.284 -66.657859 -81565.626 285599.883 -204034.26 -2.2219286
 264000      .264  179762.598 -33754.658 -82.538416 -33672.119 213517.256 -179845.14 -2.7512805
 264500     .2645  152474.148 14621.6801 -92.493955 14714.1741 137852.468 -152566.64 -3.0831318
 265000      .265  122563.252  62687.493 -96.645692 62784.1387 59875.7593  -122659.9 -3.2215231
 265500     .2655  90546.8916 109638.018 -95.731061 109733.749 -19091.127 -90642.623 -3.1910354
 266000      .266  57035.4079 154642.472  -90.34006 154732.812 -97607.064 -57125.748 -3.0113353
 266500     .2665  22662.3914 196899.207 -79.914754 196979.122 -174236.82 -22742.306 -2.6638251
 267000      .267  -11983.398 235696.515 -63.783763 235760.298 -247679.91 11919.6143 -2.1261254
 267500     .2675  -46335.449 270404.105 -42.241244 270446.346 -316739.55 46293.2077 -1.4080415
 268000      .268  -79816.892 300450.706 -15.924247 300466.631  -380267.6 79800.9675 -.53080823
 268500     .2685  -111867.02 325348.683 14.3733921 325334.309  -437215.7 111881.392 .479113069
 269000      .269  -141929.99 344687.772 47.3577952 344640.414 -486617.76 141977.348 1.57859317
 269500     .2695  -169436.65 358111.962 82.1670864 358029.795 -527548.61 169518.814 2.73890288
 270000       .27  -193880.87 365374.249 118.984559 365255.265 -559255.12 193999.852 3.96615195
 270500     .2705   -214864.6 366372.383 157.849873 366214.533 -581236.98 215022.445 5.26166244
 271000      .271  -232064.19  361123.25 197.978199 360925.272 -593187.44 232262.173 6.59927329
 271500     .2715  -245205.84 349738.338 238.446499 349499.892 -594944.18 245444.285 7.94821662
 272000      .272  -254087.35 332438.032 278.180109 332159.852 -586525.38  254365.53  9.2726703
 272500     .2725  -258551.89 309524.162  315.81431 309208.348 -568076.06 258867.708 10.5271437
 273000      .273  -258482.74 281360.907 350.675245 281010.232 -539843.64 258833.412 11.6891748
 273500     .2735  -253870.95 248418.529 383.000248 248035.529 -502289.48 254253.949 12.7666749
 274000      .274  -244832.97 211282.746 412.723755 210870.023 -456115.71  245245.69 13.7574585
 274500     .2745  -231564.88 170614.027 439.159096 170174.867  -402178.9 232004.036 14.6386365
 275000      .275  -214321.25 127121.808 461.639574 126660.168 -341443.06 214782.891 15.3879858
 275500     .2755  -193423.98 81565.9105 479.365305 81086.5452 -274989.89 193903.341 15.9788435
 276000      .276  -169223.82 34715.6043 491.470474 34224.1338 -203939.43 169715.292 16.3823491
 276500     .2765  -142104.66 -12661.918 497.941829  -13159.86 -129442.74 142602.602  16.598061
 277000      .277  -112535.99 -59768.268 499.478568 -60267.746 -52767.721 113035.468 16.6492856
 277500     .2775  -81066.325 -105782.12 496.359152 -106278.47 24715.7908 81562.6837 16.5453051
 278000      .278  -48270.972 -149904.21  488.42037 -150392.63 101633.239 48759.3919  16.280679
 278500     .2785  -14735.521 -191376.32 475.579672  -191851.9 176640.798 15211.1004 15.8526557
 279000      .279  18947.7039 -229486.16 457.610336 -229943.77 248433.862 -18490.094 15.2536779
 279500     .2795  52220.1315 -263606.88 434.389875 -264041.27 315827.016 -51785.742 14.4796625
 280000       .28  84541.7808  -293193.3 406.669581 -293599.97  377735.08 -84135.111 13.5556527
 280500     .2805  115351.545 -317751.61 375.640116 -318127.25 433103.157  -114975.9 12.5213372
 281000      .281  144087.931 -336852.26 341.961677 -337194.22 480940.194 -143745.97 11.3987226
 281500     .2815  170237.133 -350165.92 305.963392 -350471.88 520403.054 -169931.17 10.1987797
 282000      .282  193339.733   -357467. 268.014385 -357735.02 550806.735 -193071.72 8.93381284
 282500     .2825  212999.668 -358636.37 228.295938 -358864.66 571636.036 -212771.37 7.60986459
 283000      .283  228914.219 -353686.01 187.192228  -353873.2 582600.229 -228727.03 6.23974093
 283500     .2835  240844.709 -342735.32 145.857785 -342881.18 583580.033 -240698.85 4.86192618
 284000      .284   248583.52 -325978.15 105.578447 -326083.73 574561.675 -248477.94 3.51928155
 284500     .2845  251977.913 -303691.43 67.0216537 -303758.45 555669.343 -251910.89 2.23405512
 285000      .285  250964.218 -276254.73 30.5799906 -276285.31 527218.951 -250933.64 1.01933302
 285500     .2855  245561.314 -244137.02 -3.4055724 -244133.62 489698.337 -245564.72 -.11351908
 286000      .286  235878.187 -207894.09 -34.817091 -207859.28  443772.28   -235913. -1.1605697
 286500     .2865   222125.42 -168174.47 -63.273834 -168111.19 390299.887 -222188.69 -2.1091278
 287000      .287  204572.366 -125679.92 -87.788003 -125592.13 330252.281 -204660.15 -2.9262668
 287500     .2875  183517.806 -81131.828 -107.51082 -81024.318 264649.634 -183625.32 -3.5836941
 288000      .288  159310.995 -35276.207  -122.2349 -35153.972 194587.202 -159433.23 -4.0744965
 288500     .2885  132369.075  11110.448 -131.97661 11242.4246 121258.627 -132501.05 -4.3992205
 289000      .289  103160.291 57242.9754 -136.87444 57379.8498 45917.3156 -103297.17 -4.5624813
 289500     .2895  72208.6113 102330.374 -137.26394 102467.638 -30121.763 -72345.875 -4.5754647
 290000       .29  40087.5575 145582.314  -133.1506 145715.464 -105494.76 -40220.708 -4.4383533
 290500     .2905  7370.98622 186252.187 -124.08562 186376.273  -178881.2 -7495.0718 -4.1361872
 291000      .291  -25389.624 223662.516 -109.92991 223772.446 -249052.14  25279.694 -3.6643303
 291500     .2915  -57645.525 257196.061 -91.113946 257287.175 -314841.59 57554.4112 -3.0371315
 292000      .292  -88845.018 286293.963 -68.208309 286362.172 -375138.98 88776.8095 -2.2736103
 292500     .2925  -118451.52 310473.099 -41.908989 310515.008 -428924.62 118409.615 -1.3969663
 293000      .293  -145938.05 329321.013 -13.001819 329334.015 -475259.06 145925.046 -.43339398
 293500     .2935  -170803.06 342504.139 18.1485982 342485.991  -513307.2 170821.208 .604953273
 294000      .294  -192615.03  349801.34 51.5217892 349749.819 -542416.38 192666.557 1.71739297
 294500     .2945  -211022.14 351112.275 86.7289377 351025.546 -562134.41 211108.866 2.89096459
 295000      .295  -225728.93 346437.733 122.962005 346314.771 -572166.66 225851.887 4.09873352
 295500     .2955  -236493.84 335873.256 159.383152 335713.873 -572367.09 236653.219 5.31277174
 296000      .296  -243138.88 319612.807 195.085431 319417.722 -562751.68 243333.963 6.50284769
 296500     .2965  -245538.66 297932.056 229.228757 297702.827 -543470.72 245767.893 7.64095856
 297000      .297  -243637.15 271191.859  261.47997 270930.379 -514829.01 243898.631   8.715999
  % % % % % %   Suspended simulation;  plot data space exhausted;  SPY SPACE is required.   LIMBUF =  340000.
  % % % % % %   Suspended simulation;  plot data space exhausted;  SPY SPACE is required.   LIMBUF =  340000.
  +++  Time-sharing disabled.   Send  user-keyed interrupt to silence alarm.
   Current values.  INDBUF  INDBEG  LIMBUF  MFLUSH  NUMDCD  KCARD1  KCARD2
                    339994      50  340000    1006      46       1      50
Plot timespan now in memory (in sec) = 2.54952013E-01   2.97445000E-01
   ++++  Begin plot-data copy from memory to disk.   MFLUSH, INDBUF, N4, Tbeg,  Tend = 1007  339994       1  -1.00000E+00
1.00000E+19
 297500     .2975  -237478.69 239856.286  291.76433 239564.522 -477334.97 237770.452 9.72547768
 298000      .298  -227200.78  204482.58 319.651297 204162.929 -431683.36 227520.432 10.6550432
 298500     .2985   -213004.6 165691.392 344.460653 165346.931 -378695.99  213349.06 11.4820218
 299000      .299  -195150.01 124154.956 365.575215  123789.38 -319304.96 195515.581 12.1858405
 299500     .2995  -173952.78 80587.6251 382.376285 80205.2488  -254540.4 174335.152 12.7458762
 300000       0.3  -149768.35  35722.495 394.453751 35328.0412 -185490.85 150162.805 13.1484584
 300500     .3005  -123005.65 -9687.7033 401.932337 -10089.636 -113317.94 123407.579 13.3977446
 301000      .301  -94143.057 -54864.035 405.091867 -55269.127 -39279.022 94548.1493 13.5030622
 301500     .3015  -63707.212 -99021.982 403.879099 -99425.861 35314.7699 64111.0916 13.4626366
 302000      .302  -32240.933 -141402.31 398.114501 -141800.42 109161.376  32639.047 13.2704834
 302500     .3025   -296.6639 -181281.54 387.711712 -181669.25 180984.876 684.375612 12.9237237
 303000      .303  31574.8782 -217985.54 372.613756 -218358.15 249560.419 -31202.264 12.4204585
 303500     .3035  62840.1126  -250908.4 353.045854 -251261.45 313748.514 -62487.067 11.7681951
 304000      .304  92969.0161 -279506.23  329.70527 -279835.94  372475.25 -92639.311 10.9901757
 304500     .3045  121428.601 -303292.34 303.300188 -303595.64 424720.936  -121125.3 10.1100063
 305000      .305  147709.352  -321856.5 274.201984  -322130.7 469565.855 -147435.15 9.14006612
 305500     .3055  171351.612 -334885.71 242.703723 -335128.41 506237.317 -171108.91 8.09012411
 306000      .306  191948.381 -342164.94 209.151024 -342374.09 534113.324 -191739.23 6.97170079
 306500     .3065  209156.664 -343584.71 173.902979 -343758.62 552741.376 -208982.76 5.79676597
 307000      .307   222703.75 -339145.79  137.59912 -339283.39 561849.544 -222566.15 4.58663735
 307500     .3075  232368.691 -328941.63 101.212641 -329042.84 561310.321 -232267.48 3.37375469
 308000      .308  237977.626 -313148.01 65.5631106 -313213.57 551125.634 -237912.06 2.18543702
 308500     .3085  239426.153 -292033.32 31.1129306 -292064.44 531459.477 -239395.04 1.03709769
 309000      .309  236693.011  -265963.5 -1.7587305 -265961.74 502656.513 -236694.77 -.05862435
 309500     .3095  229834.827 -235390.93 -32.693245 -235358.23 465225.753 -229867.52 -1.0897748
 310000       .31  218990.617 -200852.07 -61.347801 -200790.72 419842.685 -219051.96 -2.0449267
 310500     .3105  204374.541 -162956.92 -87.137923 -162869.78 367331.464 -204461.68 -2.9045974
 311000      .311  186250.613 -122361.75 -109.30366 -122252.45 308612.362 -186359.92 -3.6434553
 311500     .3115  164926.244 -79754.296 -127.37097 -79626.925  244680.54 -165053.61 -4.2456991
 312000      .312  140766.598 -35856.253 -141.21885 -35715.034 176622.851 -140907.82  -4.707295
 312500     .3125  114194.908  8583.5309 -150.81522 8734.34611 105611.377 -114345.72 -5.0271739
 313000      .313  85680.4821 52805.6898 -156.19607 52961.8858 32874.7923 -85836.678 -5.2065357
 313500     .3135  55735.9305 96047.5642 -157.40812 96204.9724 -40311.634 -55893.339 -5.2469372
 314000      .314  24899.2908 137561.265 -154.28155 137715.546 -112661.97 -25053.572 -5.1427182
 314500     .3145  -6293.6184  176641.17 -146.59006  176787.76 -182934.79  6147.0283 -4.8863353
 315000      .315   -37314.65 212634.963 -134.44687  212769.41 -249949.61 37180.2035 -4.4815624
 315500     .3155  -67634.009 244940.925 -118.25622 245059.181 -312574.93 67515.7532 -3.9418739
 316000      .316  -96727.069 273016.009 -98.477888 273114.487 -369743.08 96628.5911 -3.2825963
 316500     .3165  -124086.34 296387.317 -75.625625 296462.943 -420473.66 124010.712 -2.5208542
 317000      .317  -149226.18 314655.178 -50.162104  314705.34 -463881.36 149176.022 -1.6720701
 317500     .3175  -171703.04 327507.695 -22.322075 327530.017 -499210.73 171680.715 -.74406918
 318000      .318  -191137.17 334737.897 7.65998342 334730.238 -525875.07 191144.831 .255332781
 318500     .3185  -207210.95 336242.553 39.2407726 336203.313  -543453.5  207250.19 1.30802575
 319000      .319  -219658.28 332011.574 71.6999525 331939.874 -551669.86 219729.985 2.38999842
 319500     .3195  -228269.99 322128.523  104.33212 322024.191 -550398.51 228374.319 3.47773732
 320000       .32  -232898.35 306769.664 136.443347  306633.22 -539668.02 233034.798 4.54811155
 320500     .3205  -233457.81 286197.628 167.486402 286030.141 -519655.43 233625.292 5.58288008
 321000      .321  -229939.57 260766.348 197.169468 260569.178 -490705.92 230136.742  6.5723156
 321500     .3215  -222421.35 230923.611  225.18465 230698.426 -453344.96 222646.535 7.50615501
 322000      .322  -211054.54 197196.068 250.990567 196945.078 -408250.61 211305.533 8.36635225
 322500     .3225  -196048.88 160170.243  273.99013 159896.252 -356219.13 196322.875 9.13300433
 323000      .323  -177671.46 120484.514 293.669522 120190.845 -298155.98 177965.133 9.78898406
 323500     .3235  -156241.59 78817.3484 309.596728 78507.7517 -235058.94 156551.185 10.3198909
 324000      .324  -132125.93 35874.6361 321.564045 35553.0721 -168000.57 132447.497 10.7188015
 324500     .3245  -105745.58   -7612.22  329.61794  -7941.838 -98133.364 106075.202 10.9872647
 325000      .325  -77573.775 -50893.408 333.766753 -51227.175 -26680.367 77907.5422 11.1255584
 325500     .3255  -48114.676 -93222.365 333.849324 -93556.215 45107.6898 48448.5249 11.1283108
 326000      .326  -17885.624 -133875.71 329.725448 -134205.43 115990.082 18215.3495 10.9908483
 326500     .3265  12588.2955 -172162.76 321.361151 -172484.12 184751.055 -12266.934 10.7120384
 327000      .327   42784.602   -207439. 308.833844 -207747.83 250223.601 -42475.768 10.2944615
 327500     .3275  72189.1558 -239115.76 292.461984 -239408.22 311304.914 -71896.694 9.74873281
 328000      .328  100292.512 -266660.32 272.757322 -266933.08 366952.835 -100019.75 9.09191072
 328500     .3285  126597.773 -289602.69 250.136411 -289852.82 416200.458 -126347.64 8.33788037
 329000      .329  150642.438 -307552.93 224.866153  -307777.8 458195.373 -150417.57 7.49553843
 329500     .3295  172011.796 -320212.29  197.24437 -320409.53 492224.084 -171814.55 6.57481234
 330000       .33  190342.513 -327375.34  167.64105 -327542.98 517717.856 -190174.87 5.58803501
[...]
        31           1.5500000      6.64424093E+05             0             0          100.000000
        32           1.6000000      6.85857128E+05           269           269           10.333333
        33           1.6500000      7.07290163E+05             2           271            9.666667
        34           1.7000000      7.28723199E+05             2           273            9.000000
        35           1.7500000      7.50156234E+05            11           284            5.333333
        36           1.8000000      7.71589269E+05             5           289            3.666667
        37           1.8500000      7.93022304E+05             6           295            1.666667
        38           1.9000000      8.14455340E+05             1           296            1.333333
        39           1.9500000      8.35888375E+05             2           298             .666667
        40           2.0000000      8.57321410E+05             2           300             .000000
Summary of preceding table follows:       Grouped data     Ungrouped data
                                 Mean = 1.59583333E+00     1.60016487E+00
                             Variance = 4.58960424E-03     4.45515354E-03
                   Standard deviation = 6.77466179E-02     6.67469366E-02

2 ) -------------------------------------------------------------------------------------------------------------------------------
Statistical distribution of peak voltage at node  "X0003B".   The base voltage for per unit printout is  V-base = 4.28660705E+05
  Interval             voltage         voltage  in     Frequency    Cumulative               Per cent
    number         in per unit      physical units     (density)     frequency     .GE. current value
        29           1.4500000      6.21558022E+05             0             0          100.000000
        30           1.5000000      6.42991058E+05            22            22           92.666667
        31           1.5500000      6.64424093E+05            29            51           83.000000
        32           1.6000000      6.85857128E+05            34            85           71.666667
        33           1.6500000      7.07290163E+05            44           129           57.000000
        34           1.7000000      7.28723199E+05            39           168           44.000000
        35           1.7500000      7.50156234E+05            29           197           34.333333
        36           1.8000000      7.71589269E+05            32           229           23.666667
        37           1.8500000      7.93022304E+05            17           246           18.000000
        38           1.9000000      8.14455340E+05            15           261           13.000000
        39           1.9500000      8.35888375E+05            15           276            8.000000
        40           2.0000000      8.57321410E+05             9           285            5.000000
        41           2.0500000      8.78754445E+05             6           291            3.000000
        42           2.1000000      9.00187481E+05             3           294            2.000000
        43           2.1500000      9.21620516E+05             1           295            1.666667
        44           2.2000000      9.43053551E+05             3           298             .666667
        45           2.2500000      9.64486586E+05             1           299             .333333
        46           2.3000000      9.85919622E+05             0           299             .333333
        47           2.3500000      1.00735266E+06             1           300             .000000
Summary of preceding table follows:       Grouped data     Ungrouped data
                                 Mean = 1.70416667E+00     1.70398936E+00
                             Variance = 2.58939521E-02     2.58758432E-02
                   Standard deviation = 1.60915978E-01     1.60859700E-01

3 ) -------------------------------------------------------------------------------------------------------------------------------
  SUMMARY   SUMMARY   SUMMARY   SUMMARY   SUMMARY   SUMMARY   SUMMARY   SUMMARY   SUMMARY   SUMMARY   SUMMARY   SUMMARY   SUMMARY
3 ) -------------------------------------------------------------------------------------------------------------------------------
The following is a distribution of peak overvoltages among all output nodes of the last data card that have the same base voltage.
This distribution is for the maximum of the peaks at all output nodes with  V-base = 4.28660705E+05
  Interval             voltage         voltage  in     Frequency    Cumulative               Per cent
    number         in per unit      physical units     (density)     frequency     .GE. current value
        34           1.7000000      7.28723199E+05             0             0          100.000000
        35           1.7500000      7.50156234E+05           187           187           37.666667
        36           1.8000000      7.71589269E+05            32           219           27.000000
        37           1.8500000      7.93022304E+05            23           242           19.333333
        38           1.9000000      8.14455340E+05            15           257           14.333333
        39           1.9500000      8.35888375E+05            17           274            8.666667
        40           2.0000000      8.57321410E+05            11           285            5.000000
        41           2.0500000      8.78754445E+05             6           291            3.000000
        42           2.1000000      9.00187481E+05             3           294            2.000000
        43           2.1500000      9.21620516E+05             1           295            1.666667
        44           2.2000000      9.43053551E+05             3           298             .666667
        45           2.2500000      9.64486586E+05             1           299             .333333
        46           2.3000000      9.85919622E+05             0           299             .333333
        47           2.3500000      1.00735266E+06             1           300             .000000
Summary of preceding table follows:       Grouped data     Ungrouped data
                                 Mean = 1.78500000E+00     1.79162073E+00
                             Variance = 1.07692308E-02     9.99541468E-03
                   Standard deviation = 1.03774904E-01     9.99770708E-02

Statistical output of branch voltage   0.4287E+06 |-1            X0003BX0003CX0003AX0003BX0003CX0003A

4 ) -------------------------------------------------------------------------------------------------------------------------------
Statistical distribution of peak voltage  for branch  "X0003A"  to  "X0003B".   Base voltage  for per unit output = 4.28660705E+05
  Interval             voltage         voltage  in     Frequency    Cumulative               Per cent
    number         in per unit      physical units     (density)     frequency     .GE. current value
        51           2.5500000      1.09308480E+06             0             0          100.000000
        52           2.6000000      1.11451783E+06           291           291            3.000000
        53           2.6500000      1.13595087E+06             0           291            3.000000
        54           2.7000000      1.15738390E+06             0           291            3.000000
        55           2.7500000      1.17881694E+06             1           292            2.666667
        56           2.8000000      1.20024997E+06             1           293            2.333333
        57           2.8500000      1.22168301E+06             1           294            2.000000
        58           2.9000000      1.24311604E+06             0           294            2.000000
        59           2.9500000      1.26454908E+06             1           295            1.666667
        60           3.0000000      1.28598212E+06             0           295            1.666667
        61           3.0500000      1.30741515E+06             1           296            1.333333
        62           3.1000000      1.32884819E+06             2           298             .666667
        63           3.1500000      1.35028122E+06             0           298             .666667
        64           3.2000000      1.37171426E+06             1           299             .333333
        65           3.2500000      1.39314729E+06             0           299             .333333
        66           3.3000000      1.41458033E+06             0           299             .333333
        67           3.3500000      1.43601336E+06             0           299             .333333
        68           3.4000000      1.45744640E+06             1           300             .000000
Summary of preceding table follows:       Grouped data     Ungrouped data
                                 Mean = 2.58766667E+00     2.59273634E+00
                             Variance = 6.36075808E-03     6.25542452E-03
                   Standard deviation = 7.97543609E-02     7.90912418E-02

5 ) -------------------------------------------------------------------------------------------------------------------------------
  SUMMARY   SUMMARY   SUMMARY   SUMMARY   SUMMARY   SUMMARY   SUMMARY   SUMMARY   SUMMARY   SUMMARY   SUMMARY   SUMMARY   SUMMARY
5 ) -------------------------------------------------------------------------------------------------------------------------------
A distribution of peak values among all output branches of the last data card that have the same base value follows.  This
statistical distribution is for the maximum of the peaks at all of these output branches having base  voltage  = 4.28660705E+05
  Interval             voltage         voltage  in     Frequency    Cumulative               Per cent
    number         in per unit      physical units     (density)     frequency     .GE. current value
        57           2.8500000      1.22168301E+06             0             0          100.000000
        58           2.9000000      1.24311604E+06           294           294            2.000000
        59           2.9500000      1.26454908E+06             1           295            1.666667
        60           3.0000000      1.28598212E+06             0           295            1.666667
        61           3.0500000      1.30741515E+06             1           296            1.333333
        62           3.1000000      1.32884819E+06             2           298             .666667
        63           3.1500000      1.35028122E+06             0           298             .666667
        64           3.2000000      1.37171426E+06             1           299             .333333
        65           3.2500000      1.39314729E+06             0           299             .333333
        66           3.3000000      1.41458033E+06             0           299             .333333
        67           3.3500000      1.43601336E+06             0           299             .333333
        68           3.4000000      1.45744640E+06             1           300             .000000
Summary of preceding table follows:       Grouped data     Ungrouped data
                                 Mean = 2.87966667E+00     2.87536093E+00
                             Variance = 1.46644370E-03     1.51906956E-03
                   Standard deviation = 3.82941732E-02     3.89752430E-02

Blank card ends statistical tabulation requests.  |BLANK STATISTICS

                                      Sample curve symbols : "A", "B", and "C"
                                      Theoretical curve symbol : "*"
                                      Common curve symbol : "X"

        Switch  "X0001B"  to  "X0002B"            Switch  "X0001A"  to  "X0002A"            Switch  "X0001C"  to  "X0002C"
1.32420000E+00   switchings per column          1.32420000E+00   switchings per column     1.32420000E+00   switchings per column
              Columns                                     Columns                                     Columns
          5   10   15   20   25   30                5   10   15   20   25   30                5   10   15   20   25   30
     +----+----+----+----+----+----+           +----+----+----+----+----+----+           +----+----+----+----+----+----+
    X                                         X                                         X
    X                                         X                                         X
    X                                         X                                         X
    *A                                        X                                         X
    |*A                                       B*                                        |*C
    |A*                                       | X                                       | X
    |   X                                     | B *                                     |   *  C
    |       X                                 |       X                                 |     C *
    |      A    *                             |           *B                            |       C   *
    |                 * A                     |                 *    B                  |                 *  C
    |                       *     A           |                       X                 |                       *    C
    |                      A    *             |                           *   B         |                    C      *
    |  5.5000E-02                 *     A     |  5.5000E-02              B  *           |  5.5000E-02                 *     C
    |                           *      A      |                         B *             |                         C *
    |                  A    *                 |                       * B               |                       *     C
    |               A *                       |                B*                       |            C    *
    |         A *                             |          B*                             |        C  *
    |       * A                               |       X                                 |       *  C
    |  A*                                     |   X                                     | C *
    | *A                                      | X                                       | X
    |X                                        |X                                        |*C
    X                                         *B                                        X
    X                                         X                                         X
    X                                         X                                         *C
    X                                         X                                         X
   Time (scale = 3.33333333E-04  Sec/line)   Time (scale = 3.33333333E-04  Sec/line)   Time  (scale = 3.33333333E-04  Sec/line)

        Switch  "X0003C"  to  "XX0009"            Switch  "X0001B"  to  "X0002B"            Switch  "X0001A"  to  "X0002A"
1.32420000E+00   switchings per column          1.32420000E+00   switchings per column     1.32420000E+00   switchings per column
              Columns                                     Columns                                     Columns
          5   10   15   20   25   30                5   10   15   20   25   30                5   10   15   20   25   30
     +----+----+----+----+----+----+           +----+----+----+----+----+----+           +----+----+----+----+----+----+
    X                                         X                                         X
    X                                         X                                         X
    X                                         X                                         X
    *A                                        X                                         * C
    |X                                        |X                                        |*C
    | *A                                      | X                                       | X
    |  A*                                     |  B*                                     |   X
    |      A*                                 |    B  *                                 |     C *
    |         A *                             |           *  B                          |          C*
    |                 * A                     |                B*                       |                 X
    |                       *     A           |                       *    B            |                       X
    |                           *    A        |                           *B            |                           * C
    |  1.0000E-02                 *A          |  7.0000E-01                 *   B       |  7.0000E-01                C*
    |                           *   A         |                           *  B          |                           *  C
    |                A      *                 |                   B   *                 |                    C  *
    |                 * A                     |            B    *                       |                 X
    |           X                             |         B *                             |           * C
    |     A *                                 |     B *                                 |       X
    A   *                                     |   *  B                                  |   *C
    A *                                       | X                                       C *
    A*                                        |*B                                       |*C
    *A                                        *B                                        X
    X                                         X                                         X
    X                                         *B                                        X
    X                                         X                                         X
   Time (scale = 3.33333333E-04  Sec/line)   Time (scale = 3.33333333E-04  Sec/line)   Time  (scale = 3.33333333E-04  Sec/line)

   Switch  "X0001C"  to  "X0002C"
     1.32420000E+00   switchings per column
              Columns
          5   10   15   20   25   30
     +----+----+----+----+----+----+
    X
    X
    *A
    X
    |X
    |A*
    | A *
    |       X
    |           *    A
    |          A      *
    |                       *    A
    |                         A *
    |  7.0000E-01                A*
    |                          A*
    |                       X
    |                 *  A
    |           *       A
    |    A  *
    |   X
    A *
    A*
    *A
    X
    *A
    X
   Time (scale = 3.33333333E-04  Sec/line)
 .... Questionable Kolmogorov-Smirnov test result = 4.79983461E-01
 .... Questionable Kolmogorov-Smirnov test result = 8.61125218E-01
 .... Questionable Kolmogorov-Smirnov test result = 6.22920778E-01
 .... Questionable Kolmogorov-Smirnov test result = 8.70941508E-02
 .... Questionable Kolmogorov-Smirnov test result = 7.08509700E-01
 .... Questionable Kolmogorov-Smirnov test result = 9.61921384E-01
 .... Questionable Kolmogorov-Smirnov test result = 7.92096056E-01

Actual List Sizes for the preceding solution follow.       11-Nov-18  11.00.00
   Size  1-10:    27    26    38     3   138    13    42  5298     0     0
   Size 11-20:     0     7 -9999 -9999 -9999     0     0     0    23  3252
   Size 21-30:    36   180 14794     0 -9999     9 -9999 -9999 -9999     0
Seconds for overlays  1-5  :     0.000     0.000     0.000  -- (CP: Wait; Real)
Seconds for overlays  6-11 :     0.000     0.000     0.000
Seconds for overlays 12-15 :     0.000     0.000     0.000
Seconds for time-step loop :     0.000     0.000     0.000
Seconds after DELTAT-loop  :     0.000     0.000     0.000
                               ---------------------------
                   Totals  :     0.000     0.000     0.000

