   ---   55   cards of disk file read into card cache cells  1   onward.
 <===> Done with  "/"-card sorting by data class.    Remember that the source file appears different from interpreted input data.
Alternative Transients Program (ATP),  F77 GNU Linux or DOS.  All rights reserved by Can/Am user group of Portland, Oregon, USA.
 Date (dd-mth-yy) and time of day (hh.mm.ss) = 11-Nov-18  11.00.00    Name of disk plot file, if any, is
Consult the 860-page ATP Rule Book of the Can/Am EMTP User Group in Portland,  Oregon, USA.  Source code date is
Total size of LABCOM tables = 16446853 INTEGER words.  31 VARDIM  List Sizes follow:  6002  10K  192K  900  420K  1200  15K
  120K  2250  3800  720  2K  72800  510  800K  800  90  254  800K  100K  3K  15K  192K  120  45K  260K  600  210K  1100  19  200K
--------------------------------------------------+--------------------------------------------------------------------------------
Descriptive interpretation of input data cards.   |  Input data card images are shown below, all 80 columns, character by character
                                                  0         1         2         3         4         5         6         7         8
                                                  012345678901234567890123456789012345678901234567890123456789012345678901234567890
--------------------------------------------------+--------------------------------------------------------------------------------
Comment card.   KOMPAR > 0.                       |C data:Caso0_ReEnergizacao_Convenc_RPI.atp
Marker card preceding new EMTP data case.         |BEGIN NEW DATA CASE
Comment card.   KOMPAR > 0.                       |C $DUMMY, XYZ000
Misc. data.     1.000E-06   1.000E+00   0.000E+00 |   1.E-6      1.
Misc. data.  500  1  0  0  1  0  0  1  300  0     |     500       1       0       0       1       0       0       1     300
Statistics data.      1    1    0    0    1    0  |       1       1       0       0       1      -1                               0
Series R-L-C.   5.000E+00  7.500E-02  0.000E+00   |  X0001AX0007A                5.   75.                                         0
Series R-L-C.   5.000E+00  7.500E-02  0.000E+00   |  X0001BX0007B                5.   75.                                         0
Series R-L-C.   5.000E+00  7.500E-02  0.000E+00   |  X0001CX0007C                5.   75.                                         0
Series R-L-C.   2.000E+02  0.000E+00  0.000E+00   |  X0007AX0001A              200.                                               0
Series R-L-C.   2.000E+02  0.000E+00  0.000E+00   |  X0007BX0001B              200.                                               0
Series R-L-C.   2.000E+02  0.000E+00  0.000E+00   |  X0007CX0001C              200.                                               0
Series R-L-C.   1.516E+00  1.608E+00  0.000E+00   |  X0003BXX0008            1.5155 1608.                                         0
Series R-L-C.   1.516E+00  1.608E+00  0.000E+00   |  X0003AXX0008            1.5155 1608.                                         0
Series R-L-C.   1.516E+00  1.608E+00  0.000E+00   |  X0003CXX0008            1.5155 1608.                                         0
Series R-L-C.   3.272E-01  3.472E-01  0.000E+00   |  XX0008                   .3272 347.2                                         0
Series R-L-C.   3.000E+01  0.000E+00  0.000E+00   |  XX0009                     30.                                               0
Series R-L-C.   7.000E+02  0.000E+00  0.000E+00   |  X0002AX0010A              700.                                               0
Series R-L-C.   7.000E+02  0.000E+00  0.000E+00   |  X0002BX0010B              700.                                               0
Series R-L-C.   7.000E+02  0.000E+00  0.000E+00   |  X0002CX0010C              700.                                               0
Dynamic $INCLUDE uses fixed RAM cache to delay.   |$INSERT, C:\SimulacaoATP\3\EXT1.pch
J. Marti line, mode  1   parameters begin.        |-1X0010AX0006C                2.  0.00              -2 3
J. Marti line, mode  2   parameters begin.        |-2X0010BX0006A                2.  0.00              -2 3
J. Marti line, mode  3   parameters begin.        |-3X0010CX0006B                2.  0.00              -2 3
TR(1,1 )...  0.667-0.707-0.317                    |  0.66668704 -0.70710678 -0.31743981
TI(1,1 )...  0.000 0.000 0.004                    |  0.00000000  0.00000000  0.00360196
TR(2,1 )...  0.333 0.000 0.894                    |  0.33285412  0.00000000  0.89350256
TI(2,1 )... -0.016 0.000 0.010                    | -0.01627623  0.00000000  0.00954818
TR(3,1 )...  0.667 0.707-0.317                    |  0.66668704  0.70710678 -0.31743981
TI(3,1 )...  0.000 0.000 0.004                    |  0.00000000  0.00000000  0.00360196
Dynamic $INCLUDE uses fixed RAM cache to delay.   |$INSERT, C:\SimulacaoATP\3\CONV2.pch
J. Marti line, mode  1   parameters begin.        |-1X0004AX0005C                2.  0.00              -2 3
J. Marti line, mode  2   parameters begin.        |-2X0004BX0005A                2.  0.00              -2 3
J. Marti line, mode  3   parameters begin.        |-3X0004CX0005B                2.  0.00              -2 3
TR(1,1 )...  0.667-0.707-0.317                    |  0.66668704 -0.70710678 -0.31743981
TI(1,1 )...  0.000 0.000 0.004                    |  0.00000000  0.00000000  0.00360196
TR(2,1 )...  0.333 0.000 0.894                    |  0.33285412  0.00000000  0.89350256
TI(2,1 )... -0.016 0.000 0.010                    | -0.01627623  0.00000000  0.00954818
TR(3,1 )...  0.667 0.707-0.317                    |  0.66668704  0.70710678 -0.31743981
TI(3,1 )...  0.000 0.000 0.004                    |  0.00000000  0.00000000  0.00360196
Dynamic $INCLUDE uses fixed RAM cache to delay.   |$INSERT, C:\SimulacaoATP\3\EXT3.pch
J. Marti line, mode  1   parameters begin.        |-1X0005AX0003A                2.  0.00              -2 3
J. Marti line, mode  2   parameters begin.        |-2X0005BX0003B                2.  0.00              -2 3
J. Marti line, mode  3   parameters begin.        |-3X0005CX0003C                2.  0.00              -2 3
TR(1,1 )...  0.667-0.707-0.317                    |  0.66668704 -0.70710678 -0.31743981
TI(1,1 )...  0.000 0.000 0.004                    |  0.00000000  0.00000000  0.00360196
TR(2,1 )...  0.333 0.000 0.894                    |  0.33285412  0.00000000  0.89350256
TI(2,1 )... -0.016 0.000 0.010                    | -0.01627623  0.00000000  0.00954818
TR(3,1 )...  0.667 0.707-0.317                    |  0.66668704  0.70710678 -0.31743981
TI(3,1 )...  0.000 0.000 0.004                    |  0.00000000  0.00000000  0.00360196
Dynamic $INCLUDE uses fixed RAM cache to delay.   |$INSERT, C:\SimulacaoATP\3\CONV4.pch
J. Marti line, mode  1   parameters begin.        |-1X0006AX0004C                2.  0.00              -2 3
J. Marti line, mode  2   parameters begin.        |-2X0006BX0004A                2.  0.00              -2 3
J. Marti line, mode  3   parameters begin.        |-3X0006CX0004B                2.  0.00              -2 3
TR(1,1 )...  0.667-0.707-0.317                    |  0.66668704 -0.70710678 -0.31743981
TI(1,1 )...  0.000 0.000 0.004                    |  0.00000000  0.00000000  0.00360196
TR(2,1 )...  0.333 0.000 0.894                    |  0.33285412  0.00000000  0.89350256
TI(2,1 )... -0.016 0.000 0.010                    | -0.01627623  0.00000000  0.00954818
TR(3,1 )...  0.667 0.707-0.317                    |  0.66668704  0.70710678 -0.31743981
TI(3,1 )...  0.000 0.000 0.004                    |  0.00000000  0.00000000  0.00360196
Blank card ending branches.  IBR, NTOT = 26  27   |BLANK BRANCH
Switch.   5.50E-02  1.00E-03  0.00E+00  3.33E+03  |  X0001BX0002B      .055      .001               3333.STATISTICS               0
Switch.   5.50E-02  1.00E-03  0.00E+00  3.33E+03  |  X0001AX0002A      .055      .001               3333.STATISTICS               0
Switch.   5.50E-02  1.00E-03  0.00E+00  3.33E+03  |  X0001CX0002C      .055      .001               3333.STATISTICS               0
Switch.   1.00E-02  1.00E-03  0.00E+00  0.00E+00  |  X0003CXX0009       .01      .001                    STATISTICS               1
Switch.   7.00E-01  1.00E-03  0.00E+00  0.00E+00  |  X0001BX0002B        .7      .001                    STATISTICS               0
Switch.   7.00E-01  1.00E-03  0.00E+00  0.00E+00  |  X0001AX0002A        .7      .001                    STATISTICS               0
Switch.   7.00E-01  1.00E-03  0.00E+00  0.00E+00  |  X0001CX0002C        .7      .001                    STATISTICS               0
Switch.   0.00E+00  6.98E-01  0.00E+00  0.00E+00  |  X0002AX0010A                .698                                             0
Switch.   0.00E+00  6.98E-01  0.00E+00  0.00E+00  |  X0002BX0010B                .698                                             0
Switch.   0.00E+00  6.98E-01  0.00E+00  0.00E+00  |  X0002CX0010C                .698                                             0
Switch.   7.10E-01  0.00E+00  0.00E+00  0.00E+00  |  X0002AX0010A       .71                                                       0
Switch.   7.10E-01  0.00E+00  0.00E+00  0.00E+00  |  X0002BX0010B       .71                                                       0
Switch.   7.10E-01  0.00E+00  0.00E+00  0.00E+00  |  X0002CX0010C       .71                                                       0
Blank card ending switches.   KSWTCH = 13.        |BLANK SWITCH
Source.   4.29E+05  6.00E+01  0.00E+00 -1.00E+00  |14X0007A  428660.705       60.                                     -1.      100.
Source.   4.29E+05  6.00E+01 -1.20E+02 -1.00E+00  |14X0007B  428660.705       60.     -120.                           -1.      100.
Source.   4.29E+05  6.00E+01 -2.40E+02 -1.00E+00  |14X0007C  428660.705       60.     -240.                           -1.      100.
Blank card ends electric sources.  KCONST = 3     |BLANK SOURCE

     Total network loss  P-loss  by summing injections =   2.320134233740E+08

Card of names for time-step loop output.          |  X0003AX0003BX0003C
Output voltage differences for pairs of A6 names  |-5X0003BX0003CX0003AX0003BX0003CX0003A
Blank card ending requests for output variables.  |BLANK OUTPUT

Column headings for the  7   EMTP output variables follow.  These are divided among the 5 possible classes as follows ....
  First  6     output variables are electric-network voltage differences (upper voltage minus lower voltage);
  Next   1     output variables are branch currents (flowing from the upper node to the lower node);
   Step      Time      X0003A     X0003B     X0003C     X0003B     X0003A     X0003C     X0003C
                                                        X0003C     X0003B     X0003A     XX0009
 ***      Phasor I(0) =  8.0590460E+01                     Switch  "X0001B"  to  "X0002B"  closed in the steady-state.
 ***      Phasor I(0) =  3.6324188E+02                     Switch  "X0001A"  to  "X0002A"  closed in the steady-state.
 ***      Phasor I(0) = -4.4055589E+02                     Switch  "X0001C"  to  "X0002C"  closed in the steady-state.
 ***                    Switch  "X0002A"  to  "X0010A"  closed  after  0.00000000E+00  sec.
 ***                    Switch  "X0002B"  to  "X0010B"  closed  after  0.00000000E+00  sec.
 ***                    Switch  "X0002C"  to  "X0010C"  closed  after  0.00000000E+00  sec.
      0       0.0  180670.727 -283866.12 100903.238 -384769.36  464536.85 -79767.489        0.0
    500     .5E-3  218426.509 -269180.87 49697.5646 -318878.44 487607.383 -168728.94        0.0
   1000     .1E-2  249320.151 -245350.25 -3724.1965 -241626.05 494670.401 -253044.35        0.0
   1500     .0015  270594.247 -212972.11 -56867.822 -156104.29 483566.357 -327462.07        0.0
   2000      .002  554071.947 -89354.386 -530812.68 441458.295 643426.333 -.108488E7        0.0
   2500     .0025  538721.208 78646.4223 -640927.36 719573.778 460074.786 -.117965E7        0.0
   3000      .003  474454.298 214499.827 -716114.71  930614.54 259954.471 -.119057E7        0.0
   3500     .0035  378017.738 315802.166 -725118.23  .104092E7 62215.5714 -.110314E7        0.0
   4000      .004  265029.781 423603.561 -671363.85 .1094967E7 -158573.78 -936393.63        0.0
   4500     .0045  142506.543  519699.91 -610427.34 .1130127E7 -377193.37 -752933.88        0.0
   5000      .005   -5798.359 585437.569 -529132.21  .111457E7 -591235.93 -523333.85        0.0
   5500     .0055  -267932.51 596295.833 -287055.43 883351.259 -864228.34 -19122.916        0.0
   6000      .006  -451081.18 542209.696 -64478.941 606688.636 -993290.88 386602.239        0.0
   6500     .0065  -553501.02 470616.336 124742.041 345874.296 -.102412E7 678243.063        0.0
   7000      .007  -608609.86 393248.339 263760.927 129487.412 -.100186E7 872370.786        0.0
   7500     .0075  -626996.15 312064.387  341596.27 -29531.883 -939060.53 968592.417        0.0
   8000      .008  -615146.27 215103.106 390320.917 -175217.81 -830249.38 .1005467E7        0.0
   8500     .0085  -571994.86  106519.06  422250.91 -315731.85 -678513.92  994245.77        0.0
   9000      .009  -462162.15 6320.00252 391122.846 -384802.84 -468482.15 853284.996        0.0
   9500     .0095  -332565.66 -64233.938 330168.151 -394402.09 -268331.72  662733.81        0.0
  10000       .01  -224370.78 -113424.89 271228.114 -384653.01 -110945.89 495598.898        0.0
 ***                                                             Close switch  "X0003C"  to  "XX0009"  after  1.00010000E-02  sec.
  10500     .0105  -192892.96 -212899.96 22248.0305 -235147.99 20006.9968 215140.995 741.601018
  11000      .011  -126770.67   -256688. 22351.1166 -279039.12 129917.328 149121.789 745.037219
  11500     .0115  -74282.457 -306931.24 24662.3104 -331593.56 232648.788 98944.7677 822.077013
  12000      .012   -40676.61 -359229.48 29601.4167  -388830.9 318552.873 70278.0267  986.71389
  12500     .0125  -24576.657 -392201.54 34360.2356 -426561.78 367624.885 58936.8926 1145.34119
  13000      .013  -8748.7518 -426826.81 38740.9072 -465567.72 418078.062 47489.6591 1291.36357
  13500     .0135  -35031.288 -479394.32 44269.3982 -523663.71 444363.027 79300.6861 1475.64661
  14000      .014  -52452.105 -567976.06 55149.9549 -623126.01 515523.952  107602.06 1838.33183
  14500     .0145  46941.1494  -548087.6  62148.888 -610236.49  595028.75 15207.7385  2071.6296
  15000      .015  148373.944 -504059.12 62437.0264 -566496.14  652433.06 -85936.918 2081.23421
  15500     .0155  243054.859 -448492.92 56533.3571 -505026.28 691547.782  -186521.5 1884.44524
  16000      .016  346368.306 -380363.15 47868.4611 -428231.61 726731.451 -298499.84 1595.61537
  16500     .0165  451644.517 -291937.33 38101.1422 -330038.47 743581.843 -413543.37 1270.03807
  17000      .017  551220.797 -176900.29 26620.8311 -203521.12 728121.085 -524599.97 887.361037
  17500     .0175  621648.145 -45882.382 14986.2297 -60868.611 667530.527 -606661.92 499.540989
  18000      .018  652859.506 99528.7944 7489.82813 92038.9662 553330.712 -645369.68 249.660938
  18500     .0185  648273.435 242141.747 2364.27061 239777.477 406131.687 -645909.16 78.8090205
  19000      .019  603367.719 364665.916 -4776.5196 369442.435 238701.803 -608144.24 -159.21732
  19500     .0195   520721.93 466649.614 -13382.055 480031.669 54072.3165 -534103.99 -446.06851
  20000       .02  404047.793 544582.697 -22431.778 567014.476  -140534.9 -426479.57 -747.72594
  20500     .0205  265682.253 594835.709 -31225.609 626061.318 -329153.46 -296907.86 -1040.8536
  21000      .021  118328.214 614769.496 -39550.756 654320.252 -496441.28 -157878.97 -1318.3585
  21500     .0215  -33674.007 596929.324 -46499.315 643428.639 -630603.33 -12825.308 -1549.9772
  22000      .022  -179318.66 546925.028 -50639.766 597564.794 -726243.69 128678.895 -1687.9922
  22500     .0225  -301718.06 482355.243 -52091.468 534446.711  -784073.3 249626.588 -1736.3823
  23000      .023  -394639.02 411864.141 -51427.961 463292.103 -806503.16  343211.06 -1714.2654
  23500     .0235  -458805.09 335916.212 -49267.323 385183.535  -794721.3 409537.769 -1642.2441
  24000      .024  -497212.61 255622.956 -45730.934  301353.89 -752835.57 451481.677 -1524.3645
  24500     .0245  -513039.36  174273.61 -40827.266 215100.876 -687312.97  472212.09 -1360.9089
  25000      .025  -509770.37 95725.4416 -34836.481 130561.922 -605495.81 474933.891  -1161.216
  25500     .0255  -493137.79 20459.8863 -27761.848  48221.734 -513597.67 465375.939 -925.39492
  26000      .026  -466856.76 -52063.514 -19133.347 -32930.167 -414793.25 447723.416 -637.77822
  26500     .0265  -433640.84 -123568.11 -8904.4599 -114663.66 -310072.72 424736.379 -296.81533
  27000      .027  -395847.09 -195622.28 2231.63634 -197853.92 -200224.81  398078.73 74.3878779
  27500     .0275  -353918.09 -268007.51 13441.6969 -281449.21 -85910.581  367359.79 448.056563
  28000      .028  -306585.43 -339114.84 24093.7532 -363208.59 32529.4091 330679.182 803.125108
  28500     .0285  -251458.02 -406098.66 33699.0221 -439797.68 154640.643 285157.039 1123.30074
  29000      .029  -186579.58 -465630.96  41795.798 -507426.76 279051.389 228375.373 1393.19327
  29500     .0295  -112238.14  -514679.1 48109.2359 -562788.34 402440.963 160347.375  1603.6412
  30000       .03  -29365.542 -549224.49 52616.3778 -601840.86 519858.943 81981.9201 1753.87926
  30500     .0305  61395.6101 -564049.97 55349.5076 -619399.48 625445.578 -6046.1025 1844.98359
  31000      .031  158366.098 -554508.49 56306.3348 -610814.82 712874.584 -102059.76 1876.87783
  31500     .0315  257533.738 -518360.47 55454.3681 -573814.84 775894.212 -202079.37 1848.47894
  32000      .032  353069.304 -456127.17 52797.7854 -508924.96 809196.479 -300271.52 1759.92618
  32500     .0325  438773.826 -370409.48 48392.3001 -418801.78  809183.31 -390381.53 1613.07667
  33000      .033  508998.406 -265464.77 42316.5368 -307781.31 774463.179 -466681.87 1410.55123
  33500     .0335  558895.579 -147084.25  34742.539 -181826.79 705979.828 -524153.04 1158.08463
  34000      .034  584831.275 -22058.361 26000.9612 -48059.322 606889.636 -558830.31 866.698707
  34500     .0345   584670.44 102381.376 16507.1578 85874.2187 482289.064 -568163.28 550.238592
  35000      .035   558066.99 219218.917 6640.85313 212578.064 338848.073 -551426.14 221.361771
  35500     .0355   506603.38 322449.645 -3284.3946  325734.04 184153.735 -509887.77 -109.47982
  36000      .036  433577.786 407668.435 -12982.576 420651.011  25909.351 -446560.36 -432.75252
  36500     .0365  343573.212 472301.883 -22177.072 494478.956 -128728.67 -365750.28 -739.23575
  37000      .037  241797.027 515394.959  -30612.04 546006.998 -273597.93 -272409.07 -1020.4013
  37500     .0375  133445.221  537203.87 -38041.868 575245.738 -403758.65 -171487.09 -1268.0623
  38000      .038  23452.3773  538981.73 -44212.111 583193.842 -515529.35 -67664.489  -1473.737
  38500     .0385  -83598.272 522855.773 -48868.494 571724.266 -606454.04 34729.7785 -1628.9498
  39000      .039  -183688.96  491488.09 -51788.185 543276.275 -675177.05 131900.776 -1726.2728
  39500     .0395  -273649.13 447506.833 -52810.662 500317.494 -721155.96  220838.47 -1760.3554
  40000       .04  -351249.53 393050.772 -51854.588  444905.36  -744300.3 299394.945 -1728.4863
  40500     .0405  -415029.93 329662.913 -48928.493 378591.405 -744692.84 366101.439 -1630.9498
  41000      .041  -464066.41 258427.589 -44137.501  302565.09   -722494. 419928.907   -1471.25
  41500     .0415  -497813.24 180194.543 -37671.503 217866.046 -678007.78 460141.736 -1255.7168
  42000      .042  -515990.39 95823.5866  -29779.08 125602.666 -611813.98 486211.309 -992.63599
  % % % % % %   Suspended simulation;  plot data space exhausted;  SPY SPACE is required.   LIMBUF =  340000.
  % % % % % %   Suspended simulation;  plot data space exhausted;  SPY SPACE is required.   LIMBUF =  340000.
  +++  Time-sharing disabled.   Send  user-keyed interrupt to silence alarm.
   Current values.  INDBUF  INDBEG  LIMBUF  MFLUSH  NUMDCD  KCARD1  KCARD2
                    339994      50  340000    1000      46       1      50
Plot timespan now in memory (in sec) = 0.00000000E+00   4.24930000E-02
   ++++  Begin plot-data copy from memory to disk.   MFLUSH, INDBUF, N4, Tbeg,  Tend = 1001  339994       1  -1.00000E+00
1.00000E+19
  42500     .0425  -518496.76 6419.30228  -20748.61 27167.9125 -524916.06 497748.147 -691.62034
  43000      .043  -505360.53 -86439.875 -10904.263 -75535.612 -418920.66 494456.271 -363.47543
  43500     .0435  -476744.66 -180501.05 -603.66021 -179897.39 -296243.61 476140.998 -20.122007
  44000      .044  -433008.51 -272736.55 9773.89201 -282510.44 -160271.96 442782.402   325.7964
  44500     .0445  -374810.53 -359414.79 19843.8046 -379258.59 -15395.747 394654.339 661.460152
  45000      .045  -303248.54 -436369.63 29231.1193 -465600.75 133121.091 332479.656 974.370645
  45500     .0455  -219998.95  -499402.4 37586.3598 -536988.76  279403.45 257585.307 1252.87866
  46000      .046  -127386.51 -544697.99 44603.5107  -589301.5 417311.486 171990.017 1486.78369
  46500     .0465  -28352.151 -569183.26 50035.6916 -619218.95 540831.104 78387.8427 1667.85639
  47000      .047  73654.6004 -570824.16 53704.3078 -624528.46 644478.757 -19950.293 1790.14359
  47500     .0475  174818.591 -548864.67 55501.7596 -604366.42 723683.256 -119316.83 1850.05865
  48000      .048  271132.476 -503963.99  55389.996 -559353.98 775096.463 -215742.48  1846.3332
  48500     .0485  358611.977  -438176.8 53395.8487 -491572.65  796788.78 -305216.13 1779.86162
  49000      .049  433536.316 -354770.93 49604.2295 -404375.16 788307.249 -383932.09 1653.47432
  49500     .0495  492679.082  -257926.4 44152.2302 -302078.63 750605.485 -448526.85 1471.74101
  50000       .05  533500.123 -152374.81 37225.9655 -189600.78 685874.937 -496274.16 1240.86552
  50500     .0505  554281.952 -43028.927 29058.2661 -72087.193 597310.879 -525223.69 968.608869
  51000      .051  554206.406 65361.1992 19924.0208 45437.1784 488845.207 -534282.39 664.134026
  51500     .0515  533374.644   168496.9 10132.4011 158364.499 364877.745 -523242.24 337.746704
  52000      .052  492776.199 262739.599 17.3414002 262722.258   230036.6 -492758.86 .578046672
  52500     .0525  434211.429 345220.473 -10072.976 355293.449 88990.9553  -444284.4 -335.76586
  53000      .053  360170.213 413845.346 -19787.782 433633.128 -53675.133   -379958. -659.59273
  53500     .0535  273677.132 467212.106 -28786.134  495998.24 -193534.97 -302463.27  -959.5378
  54000      .054  178123.984  504478.76 -36749.075 541227.835 -326354.78 -214873.06 -1224.9692
  54500     .0545  77110.7281 525224.922  -43390.87 568615.793 -448114.19  -120501.6 -1446.3623
  55000      .055  -25696.006 529337.656 -48469.276 577806.932 -555033.66  -22773.27 -1615.6425
  55500     .0555  -126688.73 516937.278 -51794.806 568732.084   -643626.  74893.921 -1726.4935
  56000      .056  -222431.13 488350.952 -53238.733 541589.685 -710782.08 169192.393 -1774.6244
  56500     .0565  -309753.55 444137.473 -52739.457  496876.93 -753891.02 257014.092 -1757.9819
 ***                                                             Open  switch  "X0001B"  to  "X0002B"  after  5.69920000E-02  sec.
  57000      .057  -385829.46 385157.403 -50306.773 435464.176 -770986.86 335522.684 -1676.8924
  57500     .0575  -448235.26 312670.001 -46023.253 358693.254 -760905.26 402212.007 -1534.1084
  58000      .058  -494999.13 228429.211 -40041.996 268471.207 -723428.34 454957.134 -1334.7332
  58500     .0585   -524643.2 134749.928 -32580.607 167330.536 -659393.13  492062.59 -1086.0202
  59000      .059  -544582.81 55044.5255 -24828.109 79872.6344 -599627.34 519754.704 -827.60363
 ***                                                             Open  switch  "X0001A"  to  "X0002A"  after  5.94510000E-02  sec.
  59500     .0595  -539548.97 -4375.1818 -15778.288 11403.1057 -535173.79 523770.685 -525.94292
  60000       .06  -512618.72 -61616.485 -5767.5113 -55848.974 -451002.23 506851.206 -192.25038
 ***                                                             Open  switch  "X0001C"  to  "X0002C"  after  6.01340000E-02  sec.
  60500     .0605  -468873.51 -122111.06 4502.09776 -126613.15 -346762.45 473375.607 150.069925
  61000      .061  -410612.77 -185514.77 14698.4549 -200213.22   -225098. 425311.223 489.948495
  61500     .0615  -362774.11 -246598.92 25656.2337 -272255.15 -116175.19 388430.347 855.207791
  62000      .062  -299447.82 -300867.35 33122.6388 -333989.99 1419.52728 332570.463 1104.08796
  62500     .0625   -234415.7 -329798.17 32160.5974 -361958.77 95382.4728 266576.298 1072.01991
  63000      .063  -181363.57 -369343.18 26549.9161  -395893.1  187979.61 207913.486 884.997202
  63500     .0635  -109902.66 -401425.87 20443.9603 -421869.83 291523.211 130346.617 681.465342
  64000      .064  -25053.947 -422824.19  13814.042 -436638.23  397770.24 38867.9886 460.468067
  64500     .0645   63561.957 -440880.79 6549.57939 -447430.37 504442.746 -57012.378 218.319313
  65000      .065  136379.713 -447261.45 -742.15901 -446519.29 583641.167 -137121.87 -24.738634
  65500     .0655  203470.667 -457807.06 -7233.2855 -450573.78 661277.731 -210703.95 -241.10952
  66000      .066  221023.828 -480830.66 -10790.989 -470039.67 701854.485 -231814.82 -359.69962
  66500     .0665  255336.575 -488469.97 -10605.729 -477864.24 743806.549  -265942.3 -353.52429
  67000      .067  305589.707 -479843.27 -9467.6448 -470375.62 785432.975 -315057.35 -315.58816
  67500     .0675  359008.774 -459748.97 -7292.6833 -452456.29 818757.744 -366301.46 -243.08944
  68000      .068  404338.521 -434762.43 -3593.1172 -431169.32 839100.956 -407931.64 -119.77057
  68500     .0685  435765.043 -394278.82 1302.96783 -395581.79 830043.864 -434462.07 43.4322609
  69000      .069  457778.879 -347629.68 6722.52513 -354352.21  805408.56 -451056.35 224.084171
  69500     .0695   461377.79  -291513.6 12017.3495 -303530.95 752891.387 -449360.44 400.578315
  70000       .07  476014.579 -228966.87 13874.3276  -242841.2 704981.452 -462140.25 462.477588
  70500     .0705  477605.579 -174800.57 13425.5799 -188226.15 652406.151   -464180.  447.51933
  71000      .071  477083.686 -117622.63 12375.1133 -129997.75  594706.32 -464708.57 412.503775
  71500     .0715   471652.75 -50690.007 10880.9765 -61570.984 522342.757 -460771.77 362.699218
  72000      .072  454671.411  25097.285 8392.99479 16704.2902 429574.126 -446278.42 279.766493
  72500     .0725  422557.067 99722.8407 5197.26644 94525.5743 322834.226  -417359.8 173.242215
  73000      .073  379197.048 172051.827 1806.44226 170245.385 207145.221 -377390.61  60.214742
  73500     .0735  325148.883 223965.937  -956.8258 224922.763 101182.947 -326105.71 -31.894193
  74000      .074  268283.971 266403.368 -2169.9897 268573.358 1880.60307 -270453.96  -72.33299
  74500     .0745  217281.876 307223.174 -2664.5289 309887.703 -89941.297 -219946.41 -88.817629
  75000      .075  160613.281 350715.053  -2844.602 353559.655 -190101.77 -163457.88 -94.820066
  75500     .0755  96356.0765 389715.559 -2102.5655 391818.124 -293359.48 -98458.642 -70.085516
  76000      .076  25069.3024 428378.333  -368.1049 428746.438 -403309.03 -25437.407 -12.270163
  76500     .0765  -43745.656 460752.915 1861.63746 458891.277 -504498.57 45607.2938  62.054582
  77000      .077  -107655.55 476991.226 4469.84047 472521.385 -584646.77 112125.389 148.994682
  77500     .0775  -160898.61 484526.467 6323.65836 478202.809 -645425.08 167222.272 210.788612
  78000      .078  -212324.99 477645.219 7212.86295 470432.356 -689970.21  219537.85 240.428765
  78500     .0785  -266596.82 468752.475 7697.87143 461054.604  -735349.3 274294.694 256.595714
  79000      .079  -314635.83 456470.608 7941.58035 448529.027 -771106.43 322577.408 264.719345
  79500     .0795  -360761.04  446170.04 7481.02815 438689.012 -806931.08  368242.07 249.367605
  80000       .08  -398144.91 425699.824 6336.21743 419363.606 -823844.74 404481.131 211.207248
  80500     .0805  -423568.39 391224.992  4954.4454 386270.546 -814793.38 428522.832  165.14818
  81000      .081  -440960.33 343471.435 3655.06593 339816.369 -784431.77 444615.398 121.835531
  81500     .0815  -453709.72 284375.319 2886.75283 281488.566 -738085.04 456596.472 96.2250942
  82000      .082   -462882.1 227719.045 2329.02608 225390.019 -690601.14 465211.123 77.6342026
  82500     .0825  -463598.62 170108.539 1731.91404 168376.625 -633707.16 465330.538  57.730468
  83000      .083  -462532.34 115329.932 1354.44839 113975.484 -577862.27 463886.787 45.1482795
  83500     .0835  -448730.34 56051.7376  1492.1343 54559.6033 -504782.07 450222.471 49.7378099
  84000      .084  -420439.37 -7203.2574 2096.99432 -9300.2517 -413236.11  422536.36 69.8998107
  84500     .0845  -383232.07  -74119.15 3096.46442 -77215.614 -309112.92 386328.534 103.215481
  % % % % % %   Suspended simulation;  plot data space exhausted;  SPY SPACE is required.   LIMBUF =  340000.
  % % % % % %   Suspended simulation;  plot data space exhausted;  SPY SPACE is required.   LIMBUF =  340000.
  +++  Time-sharing disabled.   Send  user-keyed interrupt to silence alarm.
   Current values.  INDBUF  INDBEG  LIMBUF  MFLUSH  NUMDCD  KCARD1  KCARD2
                    339994      50  340000    1001      46       1      50
Plot timespan now in memory (in sec) = 4.24919985E-02   8.49850000E-02
   ++++  Begin plot-data copy from memory to disk.   MFLUSH, INDBUF, N4, Tbeg,  Tend = 1002  339994       1  -1.00000E+00
1.00000E+19
  85000      .085  -339761.38 -140001.66 4118.99995 -144120.66 -199759.72 343880.376 137.299998
  85500     .0855  -297203.94 -200594.96 4785.27127 -205380.23 -96608.978 301989.212 159.509042
  86000      .086  -252319.86 -256446.92 5201.29577 -261648.21 4127.05381 257521.157 173.376526
  86500     .0865  -205314.76  -302637.4 5447.54714 -308084.94 97322.6402 210762.303 181.584905
  87000      .087  -147341.67 -344359.48 5348.80754 -349708.29 197017.809 152690.477 178.293585
  87500     .0875  -82227.955 -382819.98 4946.96707 -387766.95 300592.027 87174.9225 164.898902
  88000      .088  -14517.348  -418261.6 4482.85494 -422744.46 403744.253 19000.2025 149.428498
  88500     .0885  49865.3385  -446462.6 3972.84248 -450435.44  496327.94 -45892.496 132.428083
  89000      .089  106879.634 -466741.18 3541.60629 -470282.78  573620.81 -103338.03 118.053543
  89500     .0895  158959.451 -476599.85 3071.90904 -479671.76 635559.304 -155887.54 102.396968
  90000       .09  208085.175 -475686.14  2441.0999 -478127.24 683771.315 -205644.08 81.3699966
  90500     .0905   258669.52 -469777.14 1801.74987 -471578.89 728446.655 -256867.77 60.0583291
  91000      .091  308167.336 -458163.59 1480.12027 -459643.71 766330.924 -306687.22 49.3373423
  91500     .0915  354585.331 -440298.29 1531.66861 -441829.96 794883.619 -353053.66 51.0556204
  92000      .092  390575.173 -412673.65 1801.57321 -414475.23 803248.826  -388773.6 60.0524404
  92500     .0925  416761.248 -377217.85 2174.31578 -379392.17 793979.102 -414586.93 72.4771926
  93000      .093  431491.529 -333119.34 2430.77865 -335550.12 764610.874 -429060.75 81.0259551
  93500     .0935   439268.19 -283693.02 2549.91602 -286242.94 722961.213 -436718.27 84.9972006
  94000      .094  444579.124  -232417.1 2645.42862 -235062.53 676996.225  -441933.7 88.1809538
  94500     .0945  446538.201 -177704.39 2725.70128 -180430.09 624242.586  -443812.5 90.8567092
  95000      .095  442338.178 -120751.72 2750.47943  -123502.2 563089.901  -439587.7 91.6826476
  95500     .0955  425590.404 -58881.805 2724.47344 -61606.279  484472.21 -422865.93 90.8157814
  96000      .096   399596.46 4318.64464 2648.33423 1670.31041 395277.815 -396948.13 88.2778077
  96500     .0965  362251.402 69202.1434 2508.64302 66693.5004 293049.259 -359742.76 83.6214339
  97000      .097  320765.249 131370.299 2278.79017 129091.509  189394.95 -318486.46 75.9596722
  97500     .0975  278514.088 188254.313 1986.46726 186267.846 90259.7748 -276527.62 66.2155752
  98000      .098  234232.315 240591.817  1723.0816 238868.736 -6359.5019 -232509.23 57.4360532
  98500     .0985  185882.558 288475.712 1618.35869 286857.353 -102593.15  -184264.2 53.9452895
  99000      .099  130450.822 334908.994 1670.87528 333238.119 -204458.17 -128779.95 55.6958425
  99500     .0995  71547.5379 376580.413 1798.27275  374782.14 -305032.88 -69749.265  59.942425
 100000       0.1  8676.49451   413702.5 1946.23585 411756.264 -405026.01 -6730.2587 64.8745283
 100500     .1005  -51375.966 441420.582 2055.06398 439365.518 -492796.55 53431.0297 68.5021327
 101000      .101  -106831.25  458560.82 2174.17421 456386.646 -565392.07 109005.428 72.4724735
 101500     .1015  -158412.85 466496.781 2369.76411 464127.017 -624909.63 160782.615 78.9921369
 102000      .102  -207737.02 467762.896 2603.44272 465159.454 -675499.92 210340.466  86.781424
 102500     .1025  -256364.86 464294.561 2790.94901 461503.612 -720659.42 259155.805 93.0316336
 103000      .103  -302187.22 454237.143 2904.48148 451332.662 -756424.36   305091.7 96.8160492
 103500     .1035  -343994.43 437831.037 2944.91197 434886.125 -781825.47  346939.34 98.1637322
 104000      .104  -376694.01 411220.267 2924.21366 408296.053 -787914.28 379618.225 97.4737888
 104500     .1045  -399889.03 375123.897 2897.58203 372226.315 -775012.92 402786.609 96.5860676
 105000      .105  -414822.77  331266.56 2886.52582 328380.034 -746089.33 417709.298 96.2175272
 105500     .1055  -424599.88 283526.442  2853.6791 280672.763 -708126.32 427453.555 95.1226368
 106000      .106  -429631.05 233070.716 2818.79181 230251.924 -662701.77 432449.846  93.959727
 106500     .1065  -429098.72 180529.808 2786.53764  177743.27 -609628.53  431885.26  92.884588
 107000      .107  -421011.65 125781.002 2732.52349 123048.478 -546792.65 423744.174 91.0841163
 107500     .1075  -402409.25 66235.8363 2680.24563 63555.5906 -468645.09 405089.499 89.3415209
 108000      .108   -374592.8 3602.15144 2672.37064   929.7808 -378194.95 377265.168 89.0790213
 108500     .1085  -339826.11 -60361.898 2726.11453 -63088.012 -279464.21 342552.224 90.8704845
 109000      .109  -302228.34 -121212.88 2795.91003 -124008.79 -181015.46 305024.247 93.1970009
 109500     .1095  -261211.87 -178343.62  2849.3145 -181192.93  -82868.25 264061.183 94.9771499
 110000       .11   -217521.2  -230317.1 2837.80655 -233154.91 12795.9003 220359.007 94.5935516
 110500     .1105  -169189.61  -278320.1 2752.25128 -281072.35 109130.486 171941.863 91.7417095
 111000      .111   -114830.7 -324023.04 2650.74264 -326673.79 209192.344 117481.442 88.3580879
 111500     .1115  -56834.787 -365770.61 2580.47499 -368351.09 308935.823 59415.2624 86.0158329
 112000      .112  1934.99633 -402062.83 2545.83725 -404608.66 403997.823  610.84092 84.8612417
 112500     .1125  57301.7645 -429407.12 2493.64937 -431900.76  486708.88 -54808.115 83.1216456
 113000      .113  110112.282 -448375.18 2389.10969 -450764.29 558487.464 -107723.17 79.6369895
 113500     .1135  159230.979 -458096.38 2228.65065 -460325.03 617327.362 -157002.33 74.2883549
 114000      .114  207124.516 -460697.81 2036.08538 -462733.89 667822.324 -205088.43 67.8695128
 114500     .1145  254389.228 -457533.94 1864.16915 -459398.11  711923.17 -252525.06 62.1389715
 115000      .115  298503.786 -447868.33 1755.24771 -449623.57 746372.113 -296748.54  58.508257
 115500     .1155  336625.348 -430750.67 1704.96616 -432455.64  767376.02 -334920.38 56.8322054
 116000      .116   365796.38 -404513.59 1673.27097 -406186.86 770309.966 -364123.11 55.7756989
 116500     .1165  387216.101 -370614.47 1626.12653 -372240.59 757830.569 -385589.97 54.2042177
 117000      .117  400881.717 -329267.57 1548.26417 -330815.84 730149.288 -399333.45 51.6088057
 117500     .1175  409776.632 -283476.12 1441.44415 -284917.57 693252.754 -408335.19 48.0481383
 118000      .118  414218.779 -234637.18 1351.30722 -235988.48 648855.956 -412867.47 45.0435739
 118500     .1185  412514.194 -182876.29 1323.23234 -184199.52 595390.481 -411190.96 44.1077446
 119000      .119  402399.719 -127484.37 1339.89476 -128824.26 529884.087 -401059.82 44.6631587
 119500     .1195  382905.397  -68454.29 1363.53147 -69817.821 451359.686 -381541.87 45.4510489
 120000       .12  355535.146 -7520.3383 1358.45906 -8878.7974 363055.484 -354176.69 45.2819687
 120500     .1205  321762.429 54096.9221 1309.34229 52787.5798 267665.507 -320453.09  43.644743
 121000      .121  284850.048 113196.044 1236.41608 111959.628 171654.004 -283613.63 41.2138694
 121500     .1215  245269.404 168894.245 1192.94217 167701.303 76375.1595 -244076.46 39.7647391
 122000      .122  202297.839 220959.755 1211.91477  219747.84 -18661.916 -201085.92 40.3971591
 122500     .1225  154203.646 270358.105 1266.49085 269091.614 -116154.46 -152937.16 42.2163616
 123000      .123   101720.29 316312.618 1328.84195 314983.776 -214592.33 -100391.45 44.2947316
 123500     .1235  46378.9383  357657.05 1375.05501 356281.995 -311278.11 -45003.883 45.8351669
 124000      .124  -9329.9149 392966.537 1394.15839 391572.379 -402296.45 10724.0733 46.4719463
 124500     .1245  -62359.254 419892.319  1408.1713 418484.147 -482251.57 63767.4252 46.9390432
 125000      .125  -112434.95 438555.485 1451.77084 437103.714 -550990.43 113886.719 48.3923612
 125500     .1255  -160084.57 449358.468 1539.67631 447818.791 -609443.03 161624.244 51.3225437
 126000      .126   -206847.5 453977.944 1645.51578 452332.428 -660825.44 208493.015 54.8505259
 126500     .1265  -251250.52 451868.157 1744.06591 450124.091 -703118.68 252994.588 58.1355302
 127000      .127  -292194.54 442907.436  1814.4996 441092.936 -735101.98 294009.042 60.4833201
  % % % % % %   Suspended simulation;  plot data space exhausted;  SPY SPACE is required.   LIMBUF =  340000.
  % % % % % %   Suspended simulation;  plot data space exhausted;  SPY SPACE is required.   LIMBUF =  340000.
  +++  Time-sharing disabled.   Send  user-keyed interrupt to silence alarm.
   Current values.  INDBUF  INDBEG  LIMBUF  MFLUSH  NUMDCD  KCARD1  KCARD2
                    339994      50  340000    1002      46       1      50
Plot timespan now in memory (in sec) = 8.49839970E-02   1.27477000E-01
   ++++  Begin plot-data copy from memory to disk.   MFLUSH, INDBUF, N4, Tbeg,  Tend = 1003  339994       1  -1.00000E+00
1.00000E+19
 127500     .1275  -327172.59 426087.849 1847.79931  424240.05 -753260.44 329020.387 61.5933102
 128000      .128  -354168.61 400413.239 1868.39986 398544.839 -754581.85 356037.012 62.2799953
 128500     .1285   -373707.3 367046.158 1907.86023 365138.298 -740753.46 375615.164 63.5953411
 129000      .129   -386889.2 327432.782 1973.72642 325459.055 -714321.98 388862.929 65.7908807
 129500     .1295  -395367.52  283850.84 2040.45301 281810.387 -679218.35 397407.968 68.0151003
 130000       .13  -398022.45 236341.063 2084.31496 234256.748 -634363.51 400106.765 69.4771652
 130500     .1305  -394484.88 185572.063 2094.27382  183477.79 -580056.94 396579.154 69.8091273
 131000      .131  -382973.35 131002.511 2073.09407 128929.417 -513975.86 385046.445 69.1031357
 131500     .1315  -362912.62 72791.1961 2049.10885 70742.0873 -435703.82 364961.731 68.3036282
 132000      .132  -335774.29 12646.7755 2048.98093 10597.7946 -348421.06 337823.269 68.2993642
 132500     .1325  -303555.67 -47317.544 2065.90348 -49383.447 -256238.13 305621.576 68.8634492
 133000      .133  -268032.76 -104985.12 2073.65075 -107058.77 -163047.64 270106.416 69.1216916
 133500     .1335  -228862.51 -160064.52 2053.62978 -162118.15 -68797.991  230916.14  68.454326
 134000      .134  -186160.28 -211859.41 2000.82951 -213860.24 25699.1249 188161.114  66.694317
 134500     .1345  -138935.41 -260935.03 1924.03778 -262859.07 121999.622 140859.443 64.1345925
 135000      .135  -87802.143  -306770.1 1850.15686 -308620.26 218967.956 89652.3002 61.6718953
 135500     .1355  -34776.889 -347952.38 1800.33443 -349752.71 313175.487  36577.223 60.0111476
 136000      .136  17609.3588 -382543.44 1760.48468 -384303.92 400152.795 -15848.874 58.6828228
 136500     .1365  67957.4733 -409419.99 1708.64843 -411128.64  477377.46 -66248.825 56.9549477
 137000      .137   116213.55 -428655.12 1631.04807 -430286.16 544868.666  -114582.5 54.3682691
 137500     .1375  162391.107  -440347.3 1525.65343 -441872.95 602738.404 -160865.45 50.8551144
 138000      .138  207176.955 -445630.84 1408.74309 -447039.58 652807.794 -205768.21 46.9581031
 138500     .1385    249553.8 -444364.47  1308.7364  -445673.2 693918.269 -248245.06 43.6245467
 139000      .139  287709.218 -435983.91 1241.83431 -437225.75  723693.13 -286467.38 41.3944771
 139500     .1395  319402.621 -419359.05 1189.66176 -420548.71 738761.669 -318212.96 39.6553922
 140000       .14  344211.273 -394709.14 1131.18271 -395840.33 738920.417 -343080.09 37.7060905
 140500     .1405  362362.737 -362827.25  1055.1981 -363882.44 725189.984 -361307.54 35.1732699
 141000      .141  374603.612 -324872.85 962.561247 -325835.41 699476.464 -373641.05 32.0853749
 141500     .1415  381896.629  -282566.2 873.545056 -283439.75  664462.83 -381023.08 29.1181685
 142000      .142  383574.367 -236321.57 813.346276 -237134.92 619895.939 -382761.02 27.1115425
 142500     .1425  378548.149 -186317.87 789.176229 -187107.05 564866.021 -377758.97 26.3058743
 143000      .143  365511.233 -132252.47 780.014236 -133032.49 497763.705 -364731.22 26.0004745
 143500     .1435  345203.462 -75300.274 765.952731 -76066.226 420503.736 -344437.51 25.5317577
 144000      .144  318540.254 -16704.083 738.763133 -17442.846 335244.337 -317801.49 24.6254378
 144500     .1445  287144.228  41787.427   701.4748 41085.9522 245356.801 -286442.75 23.3824933
 145000      .145  252359.587 98437.0661 674.376706 97762.6894 153922.521 -251685.21 22.4792235
 145500     .1455  214062.324  152716.66 679.048822 152037.611 61345.6644 -213383.28 22.6349607
 146000      .146  171825.319 204393.764 715.685177 203678.079 -32568.445 -171109.63 23.8561726
 146500     .1465  125321.314 253499.647 763.435388 252736.212 -128178.33 -124557.88 25.4478463
 147000      .147  76026.6919 298792.909 804.216773 297988.692 -222766.22 -75222.475 26.8072258
 147500     .1475  25346.8477 339252.914 831.622076 338421.292 -313906.07 -24515.226 27.7207359
 148000      .148   -24705.33 373371.918 850.552978 372521.365 -398077.25 25555.8826 28.3517659
 148500     .1485  -72863.822  400166.24 880.235537 399286.004 -473030.06 73744.0579 29.3411846
 149000      .149  -119103.61 419664.987 938.089755 418726.897  -538768.6 120041.701 31.2696585
 149500     .1495  -163755.04 432328.784 1017.37154 431311.412 -596083.82 164772.408 33.9123848
 150000       .15   -206691.4 438534.026 1097.35233 437436.674 -645225.43 207788.754 36.5784109
 150500     .1505  -246506.45 437735.873 1162.54265  436573.33 -684242.33 247668.996 38.7514217
 151000      .151  -281921.04  429654.58 1208.57403 428446.006 -711575.62 283129.616 40.2858011
 151500     .1515  -311306.17 413615.439 1243.02932  412372.41  -724921.6 312549.195 41.4343106
 152000      .152  -334118.54 389783.576 1283.72578  388499.85 -723902.11 335402.261 42.7908592
 152500     .1525  -350789.92 359055.432 1343.16598 357712.266 -709845.35 352133.084 44.7721994
 153000      .153  -362164.51 322796.669  1410.1878 321386.481 -684961.18   363574.7   47.00626
 153500     .1535  -368282.67 281889.354 1466.36696 280422.987 -650172.02 369749.036 48.8788985
 154000      .154  -368445.16  236622.18 1500.66489 235121.515 -605067.34 369945.826 50.0221629
 154500     .1545  -362002.55 187391.731 1511.64926 185880.082 -549394.28 363514.202 50.3883088
 155000      .155  -348228.19 134302.956 1509.82585  132793.13 -482531.15 349738.018 50.3275283
 155500     .1555  -327609.78 78366.4001 1511.98445 76854.4156 -405976.18 329121.767 50.3994818
 156000      .156  -301320.31 21022.4971 1526.21337 19496.2837 -322342.81 302846.522 50.8737789
 156500     .1565  -270855.61  -35941.61 1539.65233 -37481.263   -234914. 272395.265 51.3217444
 157000      .157  -236634.93 -91563.548 1536.68946 -93100.238 -145071.38 238171.621 51.2229819
 157500     .1575  -198717.33 -145256.91 1510.44019 -146767.35 -53460.418 200227.768 50.3480062
 158000      .158  -157065.95 -196568.04 1462.69432 -198030.73 39502.0842 158528.648 48.7564774
 158500     .1585  -111774.13 -245216.29 1406.37755 -246622.66 133442.153 113180.512 46.8792515
 159000      .159  -64056.796 -290134.99 1357.29391 -291492.29 226078.197 65414.0899 45.2431304
 159500     .1595  -15537.127 -330057.23 1319.17074 -331376.41 314520.107  16856.298 43.9723581
 160000       .16  32100.4912 -363608.74 1278.65443  -364887.4 395709.236 -30821.837 42.6218142
 160500     .1605  78378.6823 -390413.88 1223.01332 -391636.89  468792.56 -77155.669 40.7671106
 161000      .161  123004.614 -410339.81  1149.1228 -411488.93  533344.42 -121855.49 38.3040933
 161500     .1615  165918.418 -423566.83  1062.0534 -424628.88 589485.244 -164856.36   35.40178
 162000      .162  206779.411 -430279.76 975.960532 -431255.72 637059.168 -205803.45 32.5320177
 162500     .1625  244357.525 -430057.81 904.899732 -430962.71 674415.331 -243452.63 30.1633244
 163000      .163  277221.917  -422372.8 848.320417 -423221.12 699594.713  -276373.6 28.2773472
 163500     .1635  304224.906 -406836.54 792.975914 -407629.51 711061.442 -303431.93 26.4325305
 164000      .164   325374.47  -384007.3 728.775573 -384736.07 709381.769 -324645.69 24.2925191
 164500     .1645  340814.179 -354574.86 654.952619 -355229.82 695389.042 -340159.23  21.831754
 165000      .165  350964.153   -319572. 578.558149 -320150.56 670536.158  -350385.6 19.2852716
 165500     .1655  355822.616 -279808.59 513.303125 -280321.89 635631.207 -355309.31 17.1101042
 166000      .166   354747.05 -235622.59 470.233606 -236092.82 590369.639 -354276.82 15.6744535
 166500     .1665  346996.483 -187205.89 444.634572 -187650.53 534202.375 -346551.85 14.8211524
 167000      .167   332405.89 -135060.38 423.195388 -135483.58 467466.274  -331982.7 14.1065129
 167500     .1675  311739.632 -80394.456 397.664855  -80792.12 392134.088 -311341.97 13.2554952
 168000      .168  285866.738 -24432.808 368.302323  -24801.11 310299.546 -285498.44 12.2767441
 168500     .1685  255841.998 31378.7233 342.988008 31035.7353 224463.275 -255499.01 11.4329336
 169000      .169  222146.411 86055.8533 333.954341 85721.8989 136090.558 -221812.46 11.1318114
 169500     .1695  184791.655 139026.823 348.294484 138678.528 45764.8319 -184443.36 11.6098161
  % % % % % %   Suspended simulation;  plot data space exhausted;  SPY SPACE is required.   LIMBUF =  340000.
  % % % % % %   Suspended simulation;  plot data space exhausted;  SPY SPACE is required.   LIMBUF =  340000.
  +++  Time-sharing disabled.   Send  user-keyed interrupt to silence alarm.
   Current values.  INDBUF  INDBEG  LIMBUF  MFLUSH  NUMDCD  KCARD1  KCARD2
                    339994      50  340000    1003      46       1      50
Plot timespan now in memory (in sec) = 1.27476007E-01   1.69969000E-01
   ++++  Begin plot-data copy from memory to disk.   MFLUSH, INDBUF, N4, Tbeg,  Tend = 1004  339994       1  -1.00000E+00
1.00000E+19
 170000       .17  143705.695  189951.98 377.769164 189574.211 -46246.285 -143327.93 12.5923055
 170500     .1705  99543.2305 238101.197  409.19328 237692.003 -138557.97 -99134.037  13.639776
 171000      .171  53558.3188 282347.801  435.89936 281911.902 -228789.48 -53122.419 14.5299787
 171500     .1715  7044.74162 321639.413 458.826638 321180.586 -314594.67  -6585.915 15.2942213
 172000      .172  -38714.544  354895.56 485.986083 354409.574  -393610.1 39200.5306 16.1995361
 172500     .1725  -83142.705 381655.388 527.682568 381127.706 -464798.09 83670.3872 17.5894189
 173000      .173  -126052.13 401839.243 586.932513  401252.31 -527891.38 126639.066 19.5644171
 173500     .1735  -167338.83 415622.038 653.282723 414968.755 -582960.87 167992.114 21.7760908
 174000      .174  -206163.32 422751.572 714.434557 422037.137  -628914.9 206877.758 23.8144852
 174500     .1745  -241408.28 422825.319 765.452553 422059.867  -664233.6 242173.737 25.5150851
 175000      .175  -271994.62 415530.339 808.255102 414722.084 -687524.96 272802.876 26.9418367
 175500     .1755  -297072.88  400685.69 850.889341 399834.801 -697758.57 297923.768  28.362978
 176000      .176  -316548.03 378737.229 902.036983 377835.192 -695285.26 317450.067 30.0678994
 176500     .1765  -330668.71  350447.16 961.493105 349485.667 -681115.87 331630.201 32.0497702
 177000      .177  -339700.45 316723.881 1018.21799 315705.663 -656424.33 340718.671 33.9405997
 177500     .1775  -343241.11 278008.443 1061.89664 276946.547 -621249.56 344303.012 35.3965548
 178000      .178  -340823.52 234698.198 1089.81881 233608.379 -575521.72 341913.342 36.3272938
 178500     .1785  -332057.57 187207.081 1105.57686 186101.504 -519264.65 333163.147 36.8525619
 179000      .179  -316934.11 136151.465 1117.60681 135033.859 -453085.57 318051.715 37.2535602
 179500     .1795  -296118.84 82636.0556 1133.43878 81502.6169  -378754.9 297252.278 37.7812927
 180000       .18   -270543.4 27963.3244 1150.75308 26812.5713 -298506.73 271694.155 38.3584361
 180500     .1805  -240991.16 -26635.247 1159.24791 -27794.495 -214355.91 242150.408 38.6415971
 181000      .181  -207652.84  -80438.93 1151.42213 -81590.352 -127213.91 208804.259 38.3807377
 181500     .1815   -170722.3 -132784.81 1127.04508 -133911.86  -37937.49 171849.349 37.5681695
 182000      .182  -130448.82  -183103.5 1091.60529 -184195.11 52654.6824 131540.426 36.3868431
 182500     .1825   -87507.19 -230624.12  1053.9447 -231678.06 143116.929  88561.135   35.13149
 183000      .183  -43060.785 -274287.81 1020.43873 -275308.25 231227.029 44081.2237 34.0146242
 183500     .1835    1592.787 -312971.56 987.420844 -313958.98 314564.348 -605.36616 32.9140281
 184000      .184  45524.6906 -345851.67 945.931341  -346797.6  391376.36 -44578.759 31.5310447
 184500     .1845  88337.4757 -372615.07 891.297313 -373506.37  460952.55 -87446.178 29.7099104
 185000      .185  129662.618 -393055.89 825.390304 -393881.28 522718.508 -128837.23 27.5130101
 185500     .1855  169122.179 -407121.72 755.062914 -407876.78 576243.896 -168367.12 25.1687638
 186000      .186  205945.974 -414565.97 689.040779 -415255.01 620511.945 -205256.93  22.968026
 186500     .1865  239087.208 -415006.37 632.023906 -415638.39 654093.577 -238455.18 21.0674635
 187000      .187  267515.268 -408083.34 579.191374 -408662.54 675598.612 -266936.08 19.3063791
 187500     .1875  290750.208 -393870.32 522.762478 -394393.08 684620.526 -290227.45 17.4254159
 188000      .188  308767.297 -372861.63 460.132006 -373321.76 681628.927 -308307.17 15.3377335
 188500     .1885  321614.442 -345658.53 394.400801 -346052.93 667272.974 -321220.04 13.1466934
 189000      .189  329334.351 -312964.94 332.726442 -313297.67  642299.29 -329001.62 11.0908814
 189500     .1895  331623.003 -275253.64 282.778948 -275536.42 606876.642 -331340.22 9.42596494
 190000       .19  328046.828 -232902.42 246.823179 -233149.24  560949.25 -327800.01 8.22743931
 190500     .1905  318300.557 -186323.41 218.730147 -186542.14 504623.967 -318081.83 7.29100489
 191000      .191  302690.654 -136356.55 191.429117 -136547.98 439047.205 -302499.22 6.38097057
 191500     .1915  281852.973 -84088.075 163.406084 -84251.481 365941.048 -281689.57 5.44686946
 192000      .192  256480.218 -30637.438 138.081485  -30775.52 287117.656 -256342.14 4.60271616
 192500     .1925  227181.855 22921.1274 121.918348 22799.2091 204260.727 -227059.94 4.06394494
 193000      .193  194231.061 75817.9133 120.736243 75697.1771 118413.148 -194110.33 4.02454143
 193500     .1935  157813.854 127427.634 134.010548 127293.624 30386.2192 -157679.84 4.46701826
 194000      .194  118290.434 177122.345 154.390288 176967.955 -58831.911 -118136.04 5.14634295
 194500     .1945  76557.5005 223948.477 175.335209 223773.142 -147390.98 -76382.165 5.84450697
 195000      .195  33670.2216   266899.3 195.861011 266703.439 -233229.08 -33474.361 6.52870036
 195500     .1955  -9343.5722 305035.349 219.277048 304816.072 -314378.92 9562.84925 7.30923494
 196000      .196  -51676.905 337625.971 250.979949 337374.991 -389302.88 51927.8848 8.36599829
 196500     .1965  -92877.314 364296.271 294.764679 364001.506 -457173.58 93172.0786 9.82548932
 197000      .197  -132607.09 384871.573 347.715853 384523.858 -517478.66 132954.802 11.5905284
 197500     .1975  -170350.91 399180.408 401.888081  398778.52 -569531.32 170752.802 13.3962694
 198000      .198  -205209.59 406834.411 451.624464 406382.787   -612044. 205661.214 15.0541488
 198500     .1985  -236289.18 407516.425 496.579533 407019.846  -643805.6 236785.756 16.5526511
 199000      .199  -262825.03 401032.061 540.138499 400491.922 -663857.09 263365.164 18.0046166
 199500     .1995  -284397.24 387483.166 586.939305 386896.226  -671880.4 284984.176 19.5646435
 200000       0.2  -300939.07 367297.599 639.198939   366658.4 -668236.67 301578.274 21.3066313
 200500     .2005  -312517.12 341085.528 692.619286 340392.909 -653602.65 313209.742 23.0873095
 201000      .201  -319006.57 309390.933 739.696498 308651.236  -628397.5 319746.262 24.6565499
 201500     .2015  -320038.97 272585.874  776.33366  271809.54 -592624.84 320815.303 25.8777887
 202000      .202  -315344.02 231122.973 803.333533  230319.64 -546466.99 316147.349 26.7777844
 202500     .2025  -304836.47 185552.985  824.63066 184728.355 -490389.45 305661.096 27.4876887
 203000      .203  -288815.14 136696.413 844.670909 135851.742 -425511.55 289659.807  28.155697
 203500     .2035  -267867.34 85582.8231 864.756178 84718.0669 -353450.16 268732.092 28.8252059
 204000      .204  -242660.72 33315.7708 880.285474 32435.4853 -275976.49 243541.003 29.3428491
 204500     .2045  -213613.25  -19198.33 885.118045 -20083.449 -194414.92 214498.365 29.5039348
 205000      .205  -180969.17 -71245.809 877.183355 -72122.993 -109723.36 181846.351 29.2394452
 205500     .2055   -145067.9 -122109.22   858.7638 -122967.99 -22958.678 145926.664   28.62546
 206000      .206  -106418.81 -171046.48 834.566776 -171881.04  64627.664 107253.381 27.8188925
 206500     .2065  -65853.402 -217145.74 809.096509 -217954.84 151292.338 66662.4989 26.9698836
 207000      .207  -24366.334 -259432.65  783.08872 -260215.74 235066.317 25149.4232 26.1029573
 207500     .2075  17092.0775 -297001.93 752.224778 -297754.16 314094.011 -16339.853 25.0741593
 208000      .208  57906.8998 -329266.68 712.044542 -329978.72 387173.578 -57194.855 23.7348181
 208500     .2085  97629.6034 -355860.36 662.361653 -356522.72  453489.96 -96967.242 22.0787218
 209000      .209  135779.032 -376492.58 606.688807 -377099.27 512271.616 -135172.34 20.2229602
 209500     .2095  171757.664 -390897.81 550.164406 -391447.97 562655.472  -171207.5 18.3388135
 210000       .21  204760.562 -398729.94 497.003568 -399226.94 603490.501 -204263.56 16.5667856
 210500     .2105  233953.564 -399675.34 447.195444 -400122.53   633628.9 -233506.37 14.9065148
 211000      .211  258684.175  -393585.2 396.640034 -393981.84 652269.379 -258287.54 13.2213345
 211500     .2115  278690.996 -380663.53 342.201627 -381005.73 659354.526 -278348.79 11.4067209
 212000      .212  293877.505 -361303.28 284.861662 -361588.14 655180.788 -293592.64 9.49538874
  % % % % % %   Suspended simulation;  plot data space exhausted;  SPY SPACE is required.   LIMBUF =  340000.
  % % % % % %   Suspended simulation;  plot data space exhausted;  SPY SPACE is required.   LIMBUF =  340000.
  +++  Time-sharing disabled.   Send  user-keyed interrupt to silence alarm.
   Current values.  INDBUF  INDBEG  LIMBUF  MFLUSH  NUMDCD  KCARD1  KCARD2
                    339994      50  340000    1004      46       1      50
Plot timespan now in memory (in sec) = 1.69967994E-01   2.12461000E-01
   ++++  Begin plot-data copy from memory to disk.   MFLUSH, INDBUF, N4, Tbeg,  Tend = 1005  339994       1  -1.00000E+00
1.00000E+19
 212500     .2125   304164.56 -335980.67  228.59165 -336209.27 640145.233 -303935.97 7.61972168
 213000      .213  309387.592 -305166.78 178.193609 -305344.98 614554.374  -309209.4 5.93978695
 213500     .2135  309266.506 -269267.42 136.861349 -269404.28 578533.929 -309129.64 4.56204497
 214000      .214  303571.863 -228720.17 103.372326 -228823.54 532292.034 -303468.49  3.4457442
 214500     .2145  292334.895 -184131.44 73.4503618 -184204.89 476466.334 -292261.44 2.44834539
 215000      .215  275951.689 -136383.77 44.6296896  -136428.4 412335.464 -275907.06 1.48765632
 215500     .2155  254933.869 -86442.672 18.2106291 -86460.882 341376.541 -254915.66  .60702097
 216000      .216  229793.084 -35277.108 -2.2013753 -35274.906 265070.192 -229795.29 -.07337918
 216500     .2165   200925.47 16250.6044 -12.847482 16263.4519 184674.865 -200938.32 -.42824941
 217000      .217  168634.418 67398.1687 -12.143373  67410.312 101236.249 -168646.56 -.40477909
 217500     .2175  133275.215 117461.253 -2.7763184 117464.029 15813.9621 -133277.99 -.09254395
 218000      .218  95455.6524 165629.121 10.6055136 165618.516 -70173.469 -95445.047 .353517122
 218500     .2185  56037.5376 210954.086 25.7972835 210928.289 -154916.55  -56011.74 .859909451
 219000      .219   15896.045 252536.631  43.960714  252492.67 -236640.59 -15852.084 1.46535713
 219500     .2195  -24175.887 289585.325 67.9624333 289517.363 -313761.21 24243.8492 2.26541444
 220000       .22  -63575.407 321521.066 100.319854 321420.746 -385096.47 63675.7273 3.34399512
 220500     .2205  -101824.26 347946.063 140.995119 347805.068 -449770.32 101965.254 4.69983731
 221000      .221  -138436.68 368562.268 186.145264 368376.123 -506998.95 138622.823 6.20484213
 221500     .2215  -172737.61 383022.065 231.074716 382790.991 -555759.68 172968.687 7.70249053
 222000      .222  -203940.29 390956.107  273.96588 390682.141 -594896.39 204214.253 9.13219601
 222500     .2225   -231352.4 392122.778  315.98001 391806.798 -623475.18 231668.382  10.532667
 223000      .223  -254455.83 386452.939 359.477289 386093.462 -640908.77 254815.311 11.9825763
 223500     .2235  -272982.59 374123.411 406.113298 373717.298   -647106.   273388.7 13.5371099
 224000      .224  -286817.13 355490.568 454.801143 355035.767  -642307.7 287271.932 15.1600381
 224500     .2245  -295861.69  330995.96 501.335856 330494.624 -626857.65 296363.028 16.7111952
 225000      .225  -299883.37 301023.111 541.689852 300481.421 -600906.49 300425.065 18.0563284
 225500     .2255  -298639.31 265963.591 574.929988 265388.661  -564602.9 299214.242 19.1643329
 226000      .226  -292034.54 226321.452 602.702737 225718.749 -518355.99 292637.242 20.0900912
 226500     .2265  -280186.56  182749.35 627.402799 182121.947 -462935.91 280813.962 20.9134266
 227000      .227  -263453.96 136081.142 650.428981 135430.713  -399535.1  264104.39  21.680966
 227500     .2275  -242318.86 87246.2882 670.397834 86575.8903 -329565.15 242989.258 22.3465945
 228000      .228  -217241.74 37160.9915 683.574457 36477.4171 -254402.73 217925.312 22.7858152
 228500     .2285  -188549.09 -13389.884 687.239881 -14077.124  -175159.2 189236.328  22.907996
 229000      .229  -156579.68 -63662.421 681.745435 -64344.166 -92917.262 157261.428 22.7248478
 229500     .2295  -121795.62 -112885.22 669.558677 -113554.78 -8910.4016 122465.181 22.3186226
 230000       .23  -84834.035  -160222.9  653.45099 -160876.35 75388.8606  85487.486 21.7816997
 230500     .2305  -46488.922 -204777.92 634.898306 -205412.81 158288.994 47123.8199 21.1632769
 231000      .231  -7587.9705 -245676.43 612.649015 -246289.08 238088.456 8200.61952 20.4216338
 231500     .2315  31157.2194 -282181.24 583.833223 -282765.08 313338.463 -30573.386 19.4611074
 232000      .232  69211.1915 -313765.01   547.1708 -314312.19 382976.206 -68664.021 18.2390267
 232500     .2325  106063.075 -340003.41 504.204983 -340507.62 446066.489 -105558.87 16.8068328
 233000      .233  141148.376 -360524.28 458.053139 -360982.33 501672.657 -140690.32  15.268438
 233500     .2335  173805.963 -374964.07 411.686214 -375375.76 548770.032 -173394.28 13.7228738
 234000      .234   203328.85 -382989.17 366.464727 -383355.63 586318.017 -202962.38 12.2154909
 234500     .2345  229079.745 -384368.27 321.154499 -384689.42 613448.016 -228758.59   10.70515
 235000      .235  250629.628 -379075.17 273.559529 -379348.73 629704.799 -250356.07 9.11865095
 235500     .2355  267758.459 -367306.38 223.388849 -367529.77  635064.84 -267535.07 7.44629498
 236000      .236  280306.101 -349365.57 172.780133 -349538.35  629671.67 -280133.32 5.75933776
 236500     .2365  288109.552 -325614.86 124.875326 -325739.74 613724.415 -287984.68 4.16251088
 237000      .237    290966.2 -296425.82 82.2524049 -296508.07  587392.02 -290883.95 2.74174683
 237500     .2375  288699.126 -262207.96  45.609703 -262253.57 550907.085 -288653.52 1.52032343
 238000      .238   281257.75 -223465.66 13.2879409 -223478.95 504723.414 -281244.46 .442931362
 238500     .2385  268829.114  -180881.7 -16.735895 -180864.97 449710.818 -268845.85 -.55786317
 239000      .239   251782.56 -135284.18 -44.449671 -135239.73 387066.743 -251827.01 -1.4816557
 239500     .2395  230529.272  -87534.05 -67.849869   -87466.2 318063.322 -230597.12 -2.2616623
 240000       .24  205463.964 -38474.502 -84.438244 -38390.064 243938.466  -205548.4 -2.8146081
 240500     .2405  176937.512  11112.621 -92.604024 11205.2251 165824.891 -177030.12 -3.0868008
 241000      .241  145324.653 60474.1804 -92.756127 60566.9365 84850.4727 -145417.41 -3.0918709
 241500     .2415  111111.229 108835.214 -87.286671 108922.501 2276.01518 -111198.52 -2.9095557
 242000      .242  74970.1426 155334.993 -78.380762 155413.374  -80364.85 -75048.523 -2.6126921
 242500     .2425  37665.3572  199092.51 -66.157023 199158.667 -161427.15 -37731.514 -2.2052341
 243000      .243   -71.52021 239301.382 -49.138545  239350.52  -239372.9 22.3816651 -1.6379515
 243500     .2435  -37595.133 275275.903 -25.736033 275301.639 -312871.04 37569.3971 -.85786778
 244000      .244   -74356.17 306474.664 4.55894605 306470.105 -380830.83  74360.729 .151964868
 244500     .2445  -109833.61 332459.789 40.2684664 332419.521  -442293.4  109873.88 1.34228221
 245000      .245  -143453.25 352840.271 78.4363646 352761.834 -496293.52  143531.69 2.61454549
 245500     .2455  -174545.38 367223.281 116.851213  367106.43 -541768.66 174662.227 3.89504044
 246000      .246  -202458.86 375289.915 155.345834 375134.569 -577748.77 202614.202 5.17819447
 246500     .2465  -226658.53 376862.152 195.017795 376667.134 -603520.68 226853.544 6.50059315
 247000      .247  -246767.01 371935.299 236.824771 371698.475 -618702.31 247003.835 7.89415902
 247500     .2475    -262549. 360672.723 280.561732 360392.162 -623221.72 262829.561 9.35205772
 248000      .248  -273839.86 343353.496 324.218361 343029.278 -617193.35 274164.077 10.8072787
 248500     .2485  -280463.06 320303.601 364.877004 319938.724 -600766.66 280827.938 12.1625668
 249000      .249  -282215.08 291860.695 400.815034  291459.88 -574075.78 282615.899 13.3605011
 249500     .2495  -278976.81  258444.75 432.267025 258012.483 -537421.56 279409.078 14.4089008
 250000       .25  -270780.57  220597.18 460.432658 220136.747 -491377.75 271240.999 15.3477553
 250500     .2505  -257832.53 178996.466 486.193445 178510.273 -436828.99 258318.719 16.2064482
 251000      .251  -240470.33 134427.022 509.237929 133917.784 -374897.36 240979.572 16.9745976
 251500     .2515  -219085.92  87718.473 527.702882 87190.7701 -306804.39 219613.621 17.5900961
 252000      .252  -194042.36 39670.5204 539.358303 39131.1621 -233712.88 194581.714 17.9786101
 252500     .2525  -165681.47 -8964.4422 543.461775 -9507.9039 -156717.03 166224.931 18.1153925
 253000      .253  -134421.06 -57419.332 541.039956 -57960.372 -77001.733 134962.105 18.0346652
 253500     .2535  -100795.91 -104890.29 533.766762 -105424.06 4094.37845 101329.679 17.7922254
 254000      .254  -65460.026 -150532.71 522.825563 -151055.54  85072.685 65982.8512 17.4275188
 254500     .2545  -29125.976  -193504.8 508.171978 -194012.97 164378.823 29634.1477 16.9390659
  % % % % % %   Suspended simulation;  plot data space exhausted;  SPY SPACE is required.   LIMBUF =  340000.
  % % % % % %   Suspended simulation;  plot data space exhausted;  SPY SPACE is required.   LIMBUF =  340000.
  +++  Time-sharing disabled.   Send  user-keyed interrupt to silence alarm.
   Current values.  INDBUF  INDBEG  LIMBUF  MFLUSH  NUMDCD  KCARD1  KCARD2
                    339994      50  340000    1005      46       1      50
Plot timespan now in memory (in sec) = 2.12459996E-01   2.54953000E-01
   ++++  Begin plot-data copy from memory to disk.   MFLUSH, INDBUF, N4, Tbeg,  Tend = 1006  339994       1  -1.00000E+00
1.00000E+19
 255000      .255  7514.21996 -233027.04 488.463717  -233515.5 240541.257 -7025.7562 16.2821239
 255500     .2555  43863.4678 -268449.32 462.425792 -268911.74 312312.784 -43401.042 15.4141931
 256000      .256   79389.462 -299242.92 430.370591 -299673.29  378632.38 -78959.091 14.3456864
 256500     .2565  113542.211  -324942.4 394.079106 -325336.48  438484.61 -113148.13 13.1359702
 257000      .257  145728.066   -345126. 355.627806 -345481.62 490854.062 -145372.44 11.8542602
 257500     .2575  175321.263 -359414.52 316.407781 -359730.93 534735.781 -175004.86  10.546926
 258000      .258  201728.799 -367511.97 276.532722  -367788.5  569240.77 -201452.27 9.21775739
 258500     .2585   224463.03 -369254.08 235.048533 -369489.13 593717.114 -224227.98 7.83495109
 259000      .259  243194.342 -364653.71 191.378275 -364845.09 607848.056 -243002.96 6.37927585
 259500     .2595  257697.364 -353864.21 146.468679 -354010.68 611561.576  -257550.9 4.88228929
 260000       .26  267778.142 -337120.53 102.363489 -337222.89 604898.671 -267675.78 3.41211631
 260500     .2605  273252.068  -314713.3 61.0532669 -314774.35 587965.364 -273191.01  2.0351089
 261000      .261   273961.12 -286985.85 23.6550464 -287009.51 560946.972 -273937.46 .788501547
 261500     .2615  269830.895 -254363.98 -10.014809 -254353.97 524194.877 -269840.91 -.33382696
 262000      .262  260929.481 -217390.78  -40.97361  -217349.8 478320.258 -260970.45  -1.365787
 262500     .2625  247489.933 -176745.69 -69.638617 -176676.05 424235.623 -247559.57 -2.3212872
 263000      .263   229836.07  -133185.9 -95.052697 -133090.85 363021.973 -229931.12 -3.1684232
 263500     .2635  208315.915 -87488.624 -115.52687 -87373.097 295804.539 -208431.44 -3.8508956
 264000      .264  183279.193 -40421.038 -129.70545 -40291.332 223700.231  -183408.9  -4.323515
 264500     .2645  155096.474 7261.22293 -137.22869 7398.45162 147835.251  -155233.7 -4.5742898
 265000      .265  124204.709 54792.0991 -138.97626 54931.0753 69412.6102 -124343.69 -4.6325421
 265500     .2655  91151.3345  101368.05 -136.38113 101504.432 -10216.716 -91287.716 -4.5460375
 266000      .266  56587.7143 146149.117  -130.0886 146279.205 -89561.403 -56717.803 -4.3362868
 266500     .2665  21184.8505  188324.44 -119.52655 188443.967 -167139.59 -21304.377 -3.9842183
 267000      .267  -14424.472 227160.461 -103.68238 227264.144 -241584.93   14320.79 -3.4560794
 267500     .2675   -49664.24 262024.644 -82.042542 262106.687 -311688.88 49582.1971 -2.7347514
 268000      .268  -83991.723 292377.229 -55.106622 292432.336 -376368.95 83936.6164 -1.8368874
 268500     .2685  -116858.41 317747.248  -24.44098 317771.689 -434605.66  116833.97 -.81469933
 269000      .269  -147675.68 337704.044 8.17106894 337695.873 -485379.72 147683.852 .272368965
 269500     .2695  -175840.86  351867.26 41.9065136 351825.354 -527708.12 175882.769 1.39688379
 270000       .27  -200817.23 359963.356 77.0277293 359886.328 -560780.58 200894.256 2.56759098
 270500     .2705  -222176.82 361856.087 114.036903  361742.05 -584032.91 222290.856 3.80123008
 271000      .271  -239606.44 357553.823 152.878131 357400.944 -597160.26 239759.314  5.0959377
 271500     .2715  -252874.84 347185.634 192.557769 346993.077 -600060.47 253067.394 6.41859231
 272000      .272  -261792.14  330967.86 231.270145  330736.59   -592760. 262023.415 7.70900483
 272500     .2725  -266179.39  309169.68 267.342545 308902.337 -575349.07 266446.732 8.91141816
 273000      .273  -265902.74 282124.454 300.193535  281824.26 -548027.19  266202.93 10.0064512
 273500     .2735  -260937.65 250269.282 330.197808 249939.084 -511206.93 261267.851 11.0065936
 274000      .274  -251392.34 214156.654  357.82379 213798.831 -465548.99 251750.159 11.9274597
 274500     .2745  -237495.76 174443.554 382.973974  174060.58 -411939.32 237878.735 12.7657991
 275000      .275  -219554.04 131854.451 404.725395 131449.726  -351408.5  219958.77 13.4908465
 275500     .2755  -197904.69 87139.7454 421.611606 86718.1338 -285044.44 198326.305 14.0537202
 276000      .276  -172889.01 41040.1368  432.59081  40607.546 -213929.14 173321.599 14.4196937
 276500     .2765  -144888.07 -5700.0058 437.752772 -6137.7586 -139188.07 145325.824 14.5917591
 277000      .277  -114368.08 -52306.769  437.97215 -52744.741 -62061.316 114806.056 14.5990717
 277500     .2775  -81886.577 -97976.209 434.071639 -98410.281 16089.6321 82320.6489 14.4690546
 278000      .278  -48065.139 -141895.61 426.289178  -142321.9 93830.4738 48491.4277 14.2096393
 278500     .2785  -13540.102 -183283.09 414.129054 -183697.22 169742.989 13954.2313 13.8043018
 279000      .279  21084.2291  -221427.9 396.772378 -221824.67 242512.127 -20687.457 13.2257459
 279500     .2795  55254.8371   -255716.  374.00424   -256090. 310970.834 -54880.833  12.466808
 280000       .28  88431.6944  -285608.3 346.663844 -285954.97 374039.997 -88085.031 11.5554615
 280500     .2805  120055.665 -310618.53 316.141102 -310934.67 430674.195 -119739.52 10.5380367
 281000      .281  149551.437 -330312.63 283.602165 -330596.24 479864.072 -149267.84  9.4534055
 281500     .2815  176360.849 -344328.81 249.573898 -344578.38 520689.659 -176111.27 8.31912993
 282000      .282  199988.389 -352408.12 213.903072 -352622.02  552396.51 -199774.49 7.13010239
 282500     .2825   220040.07 -354423.19 176.268205 -354599.46 574463.262  -219863.8 5.87560685
 283000      .283   236226.31 -350384.03 137.017157 -350521.05 586610.343 -236089.29 4.56723857
 283500     .2835  248317.698 -340403.23 97.3799355 -340500.61 588720.927 -248220.32 3.24599785
 284000      .284   256117.53 -324669.63  58.868018  -324728.5 580787.161 -256058.66 1.96226727
 284500     .2845  259465.307   -303441. 22.5932809 -303463.59 562906.307 -259442.71 .753109365
 285000      .285  258266.536 -277055.87 -11.034896 -277044.84 535322.407 -258277.57 -.36782987
 285500     .2855  252526.786 -245950.46 -42.241134 -245908.22 498477.251 -252569.03 -1.4080378
 286000      .286  242375.526 -210672.11 -71.297617 -210600.82 453047.639 -242446.82 -2.3765872
 286500     .2865  228048.719 -171864.42 -97.808218 -171766.62 399913.143 -228146.53 -3.2602739
 287000      .287  209837.958 -130222.57 -120.69763 -130101.87 340060.531 -209958.66 -4.0232544
 287500     .2875  188063.061 -86463.308 -138.85153 -86324.456 274526.369 -188201.91 -4.6283844
 288000      .288  163072.954 -41313.327 -151.68327 -41161.644 204386.282 -163224.64  -5.056109
 288500     .2885  135268.265 4484.71009 -159.32719 4644.03728 130783.555 -135427.59 -5.3109063
 289000      .289  105123.229 50164.0116 -162.46278 50326.4744 54959.2175 -105285.69  -5.415426
 289500     .2895  73194.2554 94930.1605 -161.68405 95091.8445 -21735.905 -73355.939 -5.3894684
 290000       .29  40086.3571 137987.764 -156.92531  138144.69 -97901.407 -40243.282 -5.2308435
 290500     .2905  6401.16073 178584.511 -147.61215 178732.123 -172183.35 -6548.7729 -4.9204048
 291000      .291  -27287.851 216036.653 -133.29334 216169.946  -243324.5 27154.5579 -4.4431114
 291500     .2915   -60433.21  249735.59 -114.08637 249849.676  -310168.8 60319.1241  -3.802879
 292000      .292  -92494.434 279139.128 -90.768228 279229.896 -371633.56 92403.6657 -3.0256076
 292500     .2925  -122922.15 303761.751 -64.503391 303826.254  -426683.9 122857.651  -2.150113
 293000      .293  -151158.56 323171.505 -36.205856 323207.711 -474330.06 151122.351 -1.2068619
 293500     .2935   -176676.8 337015.997 -6.1188584 337022.116  -513692.8 176670.682 -.20396195
 294000      .294  -199024.81 345054.367 25.9089232 345028.458 -544079.18  199050.72 .863630773
 294500     .2945  -217840.45 347169.309 59.8323926 347109.477 -565009.76 217900.287 1.99441309
 295000      .295   -232841.2 343360.177 95.0781839 343265.099 -576201.38 232936.281  3.1692728
 295500     .2955  -243801.99 333724.356 130.542952 333593.813 -577526.35 243932.533 4.35143173
 296000      .296  -250537.69 318438.671  164.94003 318273.731 -568976.36 250702.631   5.498001
 296500     .2965   -252905.1 297750.793 197.403895 297553.389 -550655.89 253102.505 6.58012985
 297000      .297  -250838.04 271996.953 227.750651 271769.202   -522835. 251065.794 7.59168838
  % % % % % %   Suspended simulation;  plot data space exhausted;  SPY SPACE is required.   LIMBUF =  340000.
  % % % % % %   Suspended simulation;  plot data space exhausted;  SPY SPACE is required.   LIMBUF =  340000.
  +++  Time-sharing disabled.   Send  user-keyed interrupt to silence alarm.
   Current values.  INDBUF  INDBEG  LIMBUF  MFLUSH  NUMDCD  KCARD1  KCARD2
                    339994      50  340000    1006      46       1      50
Plot timespan now in memory (in sec) = 2.54952013E-01   2.97445000E-01
   ++++  Begin plot-data copy from memory to disk.   MFLUSH, INDBUF, N4, Tbeg,  Tend = 1007  339994       1  -1.00000E+00
1.00000E+19
 297500     .2975  -244375.86 241617.249 256.108371 241361.141 -485993.11 244631.965 8.53694571
 298000      .298  -233664.04 207151.966 282.385291 206869.581 -440816.01  233946.43 9.41284304
 298500     .2985  -218932.05 169220.656 306.035529  168914.62 -388152.71 219238.088 10.2011843
 299000      .299  -200464.68 128494.268  326.12956 128168.139 -328958.95 200790.808 10.8709853
 299500     .2995  -178579.94 85669.2141 341.748061  85327.466 -264249.16  178921.69  11.391602
 300000       0.3  -153629.85 41455.8958 352.515448 41103.3804 -195085.75 153982.365 11.7505149
 300500     .3005  -126027.15 -3410.2726 358.703779 -3768.9764 -122616.87 126385.849 11.9567926
 301000      .301   -96258.48 -48165.089 360.799795 -48525.889 -48093.391   96619.28 12.0266598
 301500     .3015  -64872.205 -92028.363 359.042012 -92387.405 27156.1584 65231.2467 11.9680671
 302000      .302  -32447.693 -134230.56 353.267491 -134583.83  101782.87 32800.9605  11.775583
 302500     .3025  436.333914 -174041.46 343.039687  -174384.5  174477.79 -93.294226 11.4346562
 303000      .303  33224.3209 -210794.14 328.063173 -211122.21 244018.464 -32896.258 10.9354391
 303500     .3035  65380.6583 -243890.48 308.620295  -244199.1 309271.133 -65072.038 10.2873432
 304000      .304  96368.0366 -272788.74 285.533818 -273074.27 369156.774 -96082.503 9.51779392
 304500     .3045  125642.803 -297000.89 259.702937 -297260.59 422643.694  -125383.1 8.65676455
 305000      .305  152672.357 -316103.83 231.716441 -316335.54 468776.184 -152440.64 7.72388136
 305500     .3055  176965.607 -329760.52 201.769704 -329962.29 506726.129 -176763.84 6.72565679
 306000      .306  198099.897 -337739.38 169.840919 -337909.23 535839.282 -197930.06 5.66136397
 306500     .3065  215735.765 -339926.48 136.106223 -340062.59 555662.246 -215599.66  4.5368741
 307000      .307   229604.89 -336316.99 101.268749 -336418.26 565921.879 -229503.62 3.37562497
 307500     .3075  239487.333 -326994.81 66.4069218 -327061.21 566482.138 -239420.93 2.21356406
 308000      .308   245207.04 -312123.04 32.5135718 -312155.55  557330.08 -245174.53 1.08378573
 308500     .3085  246646.216 -291946.94 .191881872 -291947.13 538593.152 -246646.02 .006396062
 309000      .309  243767.559 -266803.43 -30.362061 -266773.06 510570.986 -243797.92 -1.0120687
 309500     .3095  236630.117 -237127.15 -59.139023 -237068.01 473757.263 -236689.26 -1.9713008
 310000       .31  225390.579 -203447.76 -85.916067 -203361.85 428838.343 -225476.49 -2.8638689
 310500     .3105  210279.416 -166367.35 -110.03311 -166257.31 376646.763 -210389.45 -3.6677704
 311000      .311  191574.012 -126532.61 -130.62593 -126401.99 318106.626 -191704.64 -4.3541978
 311500     .3115  169590.561 -84619.421 -147.05287 -84472.368 254209.982 -169737.61 -4.9017624
 312000      .312  144692.378 -41329.225 -159.11237 -41170.112 186021.603 -144851.49 -5.3037457
 312500     .3125  117302.097 2609.88483 -166.99787  2776.8827 114692.212 -117469.09 -5.5665956
 313000      .313  87906.4225 46445.5867 -171.03862 46616.6253 41460.8358 -88077.461 -5.7012872
 313500     .3135  57045.1863 89412.9756 -171.32699 89584.3026 -32367.789 -57216.513 -5.7108998
 314000      .314  25279.5658 130762.814 -167.59265 130930.407 -105483.25 -25447.158 -5.5864218
 314500     .3145  -6835.4844 169788.324 -159.48532 169947.809 -176623.81 6675.99908 -5.3161773
 315000      .315  -38759.749 205838.482 -146.94567 205985.427 -244598.23  38612.803 -4.8981889
 315500     .3155  -69961.773 238319.484 -130.33964 238449.824 -308281.26 69831.4331 -4.3446548
 316000      .316  -99911.665 266692.971 -110.35761 266803.328 -366604.64 99801.3078 -3.6785868
 316500     .3165  -128081.29 290476.994  -87.72716 290564.721 -418558.28 127993.561 -2.9242387
 317000      .317   -153960.2 309256.459 -62.883482 309319.342 -463216.66 153897.321 -2.0961161
 317500     .3175   -177086.5 322705.669 -35.932851 322741.602 -499792.17 177050.569 -1.1977617
 318000      .318  -197067.62 330604.422 -6.9607963 330611.383 -527672.04 197060.658 -.23202654
 318500     .3185  -213582.32 332840.194 23.6616864 332816.532 -546422.51 213605.982 .788722879
 319000      .319  -226370.36 329399.545 55.2155428  329344.33  -555769.9 226425.575 1.84051809
 319500     .3195  -235222.88 320357.813 86.7774571 320271.036  -555580.7 235309.662  2.8925819
 320000       .32  -239980.21 305871.625 117.517262 305754.108 -545851.83 240097.724 3.91724206
 320500     .3205  -240544.92 286181.516  146.96804 286034.548 -526726.43 240691.885 4.89893467
 321000      .321  -236903.79 261622.547 174.980169 261447.567 -498526.33 237078.767  5.8326723
 321500     .3215  -229136.19 232625.946 201.404666 232424.542 -461762.13 229337.593 6.71348887
 322000      .322  -217404.96 199707.912 225.850041 199482.062 -417112.88 217630.815 7.52833469
 322500     .3225  -201938.08 163450.228 247.674966 163202.553 -365388.31 202185.755  8.2558322
 323000      .323  -183013.03 124481.362 266.159113 124215.203 -307494.39 183279.186 8.87197044
 323500     .3235  -160949.42 83461.8264 280.790363  83181.036 -244411.25  161230.21 9.35967877
 324000      .324  -136116.46 41080.7489   291.4618 40789.2871 -177197.21 136407.922 9.71539334
 324500     .3245  -108944.16  -1942.597 298.352104 -2240.9491 -107001.56 109242.512 9.94507013
 325000      .325  -79920.028 -44866.486 301.613434   -45168.1 -35053.542 80221.6418 10.0537811
 325500     .3255  -49570.819 -86944.908 301.185477 -87246.094  37374.089 49872.0046 10.0395159
 326000      .326  -18439.047 -127450.28 296.828107 -127747.11 109011.236 18735.8754 9.89427024
 326500     .3265   12935.503 -165693.19 288.305589  -165981.5 178628.694 -12647.197 9.61018631
 327000      .327  44024.4622  -201035.6 275.646801 -201311.25 245060.063 -43748.815  9.1882267
 327500     .3275  74305.3802 -232892.11 259.263926 -233151.37  307197.49 -74046.116 8.64213086
 328000      .328  103256.222 -260728.53 239.773655  -260968.3  363984.75 -103016.45 7.99245516
 328500     .3285  130363.699 -284068.83 217.703184 -284286.53 414432.527   -130146. 7.25677279
 329000      .329  155143.182 -302509.92 193.357149 -302703.28 457653.103 -154949.82 6.44523831
 329500     .3295  177159.742 -315737.52 166.880935 -315904.41 492897.266 -176992.86 5.56269782
 330000       .33  196042.253  -323537.2  138.45047 -323675.65 519579.453  -195903.8 4.61501566
[...]
             Random switching times for simulation number  296  :
                                   1  5.5801796E-02    2  5.4258744E-02    3  5.4176209E-02    4  1.0357663E-02    5  6.9853327E-01
                                   6  6.9869586E-01    7  6.9958808E-01

                   656647.822 -686749.76 -739079.15 .1134527E7 -.102435E7 -.120003E7 2437.07499
Times of maxima :     .018192    .714031    .003364    .004629    .006457    .002823    .713658
             Random switching times for simulation number  297  :
                                   1  5.6055230E-02    2  5.4163897E-02    3  5.4929744E-02    4  9.5205641E-03    5  7.0046628E-01
                                   6  6.9931070E-01    7  6.9985771E-01

                   653241.021 -634030.33 -739079.15 .1134527E7 -.102435E7 -.120003E7 2433.74604
Times of maxima :     .018183    .714043    .003364    .004629    .006457    .002823    .713878
             Random switching times for simulation number  298  :
                                   1  5.4402657E-02    2  5.4726493E-02    3  5.5809066E-02    4  1.1302849E-02    5  6.9999931E-01
                                   6  6.9999918E-01    7  7.0135056E-01

                   652546.438 -646318.75 -739079.15 .1134527E7 -.102435E7 -.120003E7 2407.63731
Times of maxima :     .018354    .713766    .003364    .004629    .006457    .002823    .714001
             Random switching times for simulation number  299  :
                                   1  5.4359107E-02    2  5.5309833E-02    3  5.5354775E-02    4  9.7516764E-03    5  7.0067447E-01
                                   6  7.0174165E-01    7  7.0054964E-01

                     654943.6 -642870.88 -739079.15 .1134527E7 -.102435E7 -.120003E7 2385.83726
Times of maxima :     .018169    .713949    .003364    .004629    .006457    .002823    .713679
             Random switching times for simulation number  300  :
                                   1  5.6212631E-02    2  5.5400460E-02    3  5.4330646E-02    4  9.8967378E-03    5  7.0009595E-01
                                   6  7.0031249E-01    7  6.9985806E-01

                   655867.369  -645661.9 -739079.15 .1134527E7 -.102435E7 -.120003E7 2374.53853
Times of maxima :     .018188    .713942    .003364    .004629    .006457    .002823    .714073

 MAIN20 dumps OVER12 dice seed  SEEDSV =   3.0444871000000000E+09

Statistical output of  node  voltage   0.4287E+06 |              X0003AX0003BX0003C

1 ) -------------------------------------------------------------------------------------------------------------------------------
Statistical distribution of peak voltage at node  "X0003A".   The base voltage for per unit printout is  V-base = 4.28660705E+05
  Interval             voltage         voltage  in     Frequency    Cumulative               Per cent
    number         in per unit      physical units     (density)     frequency     .GE. current value
        29           1.4500000      6.21558022E+05             0             0          100.000000
        30           1.5000000      6.42991058E+05             2             2           99.333333
        31           1.5500000      6.64424093E+05           272           274            8.666667
        32           1.6000000      6.85857128E+05             9           283            5.666667
        33           1.6500000      7.07290163E+05            10           293            2.333333
        34           1.7000000      7.28723199E+05             7           300             .000000
Summary of preceding table follows:       Grouped data     Ungrouped data
                                 Mean = 1.53300000E+00     1.53502702E+00
                             Variance = 8.88963211E-04     9.16704045E-04
                   Standard deviation = 2.98154861E-02     3.02771208E-02

2 ) -------------------------------------------------------------------------------------------------------------------------------
Statistical distribution of peak voltage at node  "X0003B".   The base voltage for per unit printout is  V-base = 4.28660705E+05
  Interval             voltage         voltage  in     Frequency    Cumulative               Per cent
    number         in per unit      physical units     (density)     frequency     .GE. current value
        28           1.4000000      6.00124987E+05             0             0          100.000000
        29           1.4500000      6.21558022E+05            11            11           96.333333
        30           1.5000000      6.42991058E+05           106           117           61.000000
        31           1.5500000      6.64424093E+05           116           233           22.333333
        32           1.6000000      6.85857128E+05            50           283            5.666667
        33           1.6500000      7.07290163E+05            11           294            2.000000
        34           1.7000000      7.28723199E+05             1           295            1.666667
        35           1.7500000      7.50156234E+05             0           295            1.666667
        36           1.8000000      7.71589269E+05             0           295            1.666667
        37           1.8500000      7.93022304E+05             0           295            1.666667
        38           1.9000000      8.14455340E+05             0           295            1.666667
        39           1.9500000      8.35888375E+05             0           295            1.666667
        40           2.0000000      8.57321410E+05             0           295            1.666667
        41           2.0500000      8.78754445E+05             1           296            1.333333
        42           2.1000000      9.00187481E+05             3           299             .333333
        43           2.1500000      9.21620516E+05             1           300             .000000
Summary of preceding table follows:       Grouped data     Ungrouped data
                                 Mean = 1.52533333E+00     1.52646064E+00
                             Variance = 7.19052397E-03     7.09176072E-03
                   Standard deviation = 8.47969573E-02     8.42125924E-02

3 ) -------------------------------------------------------------------------------------------------------------------------------
  SUMMARY   SUMMARY   SUMMARY   SUMMARY   SUMMARY   SUMMARY   SUMMARY   SUMMARY   SUMMARY   SUMMARY   SUMMARY   SUMMARY   SUMMARY
3 ) -------------------------------------------------------------------------------------------------------------------------------
The following is a distribution of peak overvoltages among all output nodes of the last data card that have the same base voltage.
This distribution is for the maximum of the peaks at all output nodes with  V-base = 4.28660705E+05
  Interval             voltage         voltage  in     Frequency    Cumulative               Per cent
    number         in per unit      physical units     (density)     frequency     .GE. current value
        34           1.7000000      7.28723199E+05             0             0          100.000000
        35           1.7500000      7.50156234E+05           295           295            1.666667
        36           1.8000000      7.71589269E+05             0           295            1.666667
        37           1.8500000      7.93022304E+05             0           295            1.666667
        38           1.9000000      8.14455340E+05             0           295            1.666667
        39           1.9500000      8.35888375E+05             0           295            1.666667
        40           2.0000000      8.57321410E+05             0           295            1.666667
        41           2.0500000      8.78754445E+05             1           296            1.333333
        42           2.1000000      9.00187481E+05             3           299             .333333
        43           2.1500000      9.21620516E+05             1           300             .000000
Summary of preceding table follows:       Grouped data     Ungrouped data
                                 Mean = 1.73083333E+00     1.73004855E+00
                             Variance = 2.03107581E-03     2.06348719E-03
                   Standard deviation = 4.50674584E-02     4.54256226E-02

Statistical output of branch voltage   0.4287E+06 |-1            X0003BX0003CX0003AX0003BX0003CX0003A

4 ) -------------------------------------------------------------------------------------------------------------------------------
Statistical distribution of peak voltage  for branch  "X0003A"  to  "X0003B".   Base voltage  for per unit output = 4.28660705E+05
  Interval             voltage         voltage  in     Frequency    Cumulative               Per cent
    number         in per unit      physical units     (density)     frequency     .GE. current value
        47           2.3500000      1.00735266E+06             0             0          100.000000
        48           2.4000000      1.02878569E+06           291           291            3.000000
        49           2.4500000      1.05021873E+06             0           291            3.000000
        50           2.5000000      1.07165176E+06             0           291            3.000000
        51           2.5500000      1.09308480E+06             0           291            3.000000
        52           2.6000000      1.11451783E+06             2           293            2.333333
        53           2.6500000      1.13595087E+06             3           296            1.333333
        54           2.7000000      1.15738390E+06             3           299             .333333
        55           2.7500000      1.17881694E+06             1           300             .000000
Summary of preceding table follows:       Grouped data     Ungrouped data
                                 Mean = 2.38300000E+00     2.39719606E+00
                             Variance = 2.14314381E-03     1.90896180E-03
                   Standard deviation = 4.62941013E-02     4.36916674E-02

5 ) -------------------------------------------------------------------------------------------------------------------------------
  SUMMARY   SUMMARY   SUMMARY   SUMMARY   SUMMARY   SUMMARY   SUMMARY   SUMMARY   SUMMARY   SUMMARY   SUMMARY   SUMMARY   SUMMARY
5 ) -------------------------------------------------------------------------------------------------------------------------------
A distribution of peak values among all output branches of the last data card that have the same base value follows.  This
statistical distribution is for the maximum of the peaks at all of these output branches having base  voltage  = 4.28660705E+05
  Interval             voltage         voltage  in     Frequency    Cumulative               Per cent
    number         in per unit      physical units     (density)     frequency     .GE. current value
        55           2.7500000      1.17881694E+06             0             0          100.000000
        56           2.8000000      1.20024997E+06           300           300             .000000
Summary of preceding table follows:       Grouped data     Ungrouped data
                                 Mean = 2.77500000E+00     2.79948650E+00
                             Variance = 1.52089415E-15     0.00000000E+00
                   Standard deviation = 3.89986429E-08     0.00000000E+00

Blank card ends statistical tabulation requests.  |BLANK STATISTICS

                                      Sample curve symbols : "A", "B", and "C"
                                      Theoretical curve symbol : "*"
                                      Common curve symbol : "X"

        Switch  "X0001B"  to  "X0002B"            Switch  "X0001A"  to  "X0002A"            Switch  "X0001C"  to  "X0002C"
1.32420000E+00   switchings per column          1.32420000E+00   switchings per column     1.32420000E+00   switchings per column
              Columns                                     Columns                                     Columns
          5   10   15   20   25   30                5   10   15   20   25   30                5   10   15   20   25   30
     +----+----+----+----+----+----+           +----+----+----+----+----+----+           +----+----+----+----+----+----+
    X                                         X                                         X
    X                                         X                                         X
    X                                         X                                         X
    *A                                        X                                         X
    |*A                                       B*                                        |*C
    |A*                                       | X                                       | X
    |   X                                     | B *                                     |   *  C
    |       X                                 |       X                                 |     C *
    |      A    *                             |           *B                            |       C   *
    |                 * A                     |                 *    B                  |                 *  C
    |                       *     A           |                       X                 |                       *    C
    |                      A    *             |                           *   B         |                    C      *
    |  5.5000E-02                 *     A     |  5.5000E-02              B  *           |  5.5000E-02                 *     C
    |                           *      A      |                         B *             |                         C *
    |                  A    *                 |                       * B               |                       *     C
    |               A *                       |                B*                       |            C    *
    |         A *                             |          B*                             |        C  *
    |       * A                               |       X                                 |       *  C
    |  A*                                     |   X                                     | C *
    | *A                                      | X                                       | X
    |X                                        |X                                        |*C
    X                                         *B                                        X
    X                                         X                                         X
    X                                         X                                         *C
    X                                         X                                         X
   Time (scale = 3.33333333E-04  Sec/line)   Time (scale = 3.33333333E-04  Sec/line)   Time  (scale = 3.33333333E-04  Sec/line)

        Switch  "X0003C"  to  "XX0009"            Switch  "X0001B"  to  "X0002B"            Switch  "X0001A"  to  "X0002A"
1.32420000E+00   switchings per column          1.32420000E+00   switchings per column     1.32420000E+00   switchings per column
              Columns                                     Columns                                     Columns
          5   10   15   20   25   30                5   10   15   20   25   30                5   10   15   20   25   30
     +----+----+----+----+----+----+           +----+----+----+----+----+----+           +----+----+----+----+----+----+
    X                                         X                                         X
    X                                         X                                         X
    X                                         X                                         X
    *A                                        X                                         * C
    |X                                        |X                                        |*C
    | *A                                      | X                                       | X
    |  A*                                     |  B*                                     |   X
    |      A*                                 |    B  *                                 |     C *
    |         A *                             |           *  B                          |          C*
    |                 * A                     |                B*                       |                 X
    |                       *     A           |                       *    B            |                       X
    |                           *    A        |                           *B            |                           * C
    |  1.0000E-02                 *A          |  7.0000E-01                 *   B       |  7.0000E-01                C*
    |                           *   A         |                           *  B          |                           *  C
    |                A      *                 |                   B   *                 |                    C  *
    |                 * A                     |            B    *                       |                 X
    |           X                             |         B *                             |           * C
    |     A *                                 |     B *                                 |       X
    A   *                                     |   *  B                                  |   *C
    A *                                       | X                                       C *
    A*                                        |*B                                       |*C
    *A                                        *B                                        X
    X                                         X                                         X
    X                                         *B                                        X
    X                                         X                                         X
   Time (scale = 3.33333333E-04  Sec/line)   Time (scale = 3.33333333E-04  Sec/line)   Time  (scale = 3.33333333E-04  Sec/line)

   Switch  "X0001C"  to  "X0002C"
     1.32420000E+00   switchings per column
              Columns
          5   10   15   20   25   30
     +----+----+----+----+----+----+
    X
    X
    *A
    X
    |X
    |A*
    | A *
    |       X
    |           *    A
    |          A      *
    |                       *    A
    |                         A *
    |  7.0000E-01                A*
    |                          A*
    |                       X
    |                 *  A
    |           *       A
    |    A  *
    |   X
    A *
    A*
    *A
    X
    *A
    X
   Time (scale = 3.33333333E-04  Sec/line)
 .... Questionable Kolmogorov-Smirnov test result = 4.79983461E-01
 .... Questionable Kolmogorov-Smirnov test result = 8.61125218E-01
 .... Questionable Kolmogorov-Smirnov test result = 6.22920778E-01
 .... Questionable Kolmogorov-Smirnov test result = 8.70941508E-02
 .... Questionable Kolmogorov-Smirnov test result = 7.08509700E-01
 .... Questionable Kolmogorov-Smirnov test result = 9.61921384E-01
 .... Questionable Kolmogorov-Smirnov test result = 7.92096056E-01

Actual List Sizes for the preceding solution follow.       11-Nov-18  11.00.00
   Size  1-10:    27    26    38     3   138    13    42  5298     0     0
   Size 11-20:     0     7 -9999 -9999 -9999     0     0     0    23  3252
   Size 21-30:    36   180 14782     0 -9999     9 -9999 -9999 -9999     0
Seconds for overlays  1-5  :     0.000     0.000     0.000  -- (CP: Wait; Real)
Seconds for overlays  6-11 :     0.000     0.000     0.000
Seconds for overlays 12-15 :     0.000     0.000     0.000
Seconds for time-step loop :     0.000     0.000     0.000
Seconds after DELTAT-loop  :     0.000     0.000     0.000
                               ---------------------------
                   Totals  :     0.000     0.000     0.000

