   ---   55   cards of disk file read into card cache cells  1   onward.
 <===> Done with  "/"-card sorting by data class.    Remember that the source file appears different from interpreted input data.
Alternative Transients Program (ATP),  F77 GNU Linux or DOS.  All rights reserved by Can/Am user group of Portland, Oregon, USA.
 Date (dd-mth-yy) and time of day (hh.mm.ss) = 11-Nov-18  11.00.00    Name of disk plot file, if any, is
Consult the 860-page ATP Rule Book of the Can/Am EMTP User Group in Portland,  Oregon, USA.  Source code date is
Total size of LABCOM tables = 16446853 INTEGER words.  31 VARDIM  List Sizes follow:  6002  10K  192K  900  420K  1200  15K
  120K  2250  3800  720  2K  72800  510  800K  800  90  254  800K  100K  3K  15K  192K  120  45K  260K  600  210K  1100  19  200K
--------------------------------------------------+--------------------------------------------------------------------------------
Descriptive interpretation of input data cards.   |  Input data card images are shown below, all 80 columns, character by character
                                                  0         1         2         3         4         5         6         7         8
                                                  012345678901234567890123456789012345678901234567890123456789012345678901234567890
--------------------------------------------------+--------------------------------------------------------------------------------
Comment card.   KOMPAR > 0.                       |C data:Caso0_ReEnergizacao_Convenc_RPI.atp
Marker card preceding new EMTP data case.         |BEGIN NEW DATA CASE
Comment card.   KOMPAR > 0.                       |C $DUMMY, XYZ000
Misc. data.     1.000E-06   1.000E+00   0.000E+00 |   1.E-6      1.
Misc. data.  500  1  0  0  1  0  0  1  300  0     |     500       1       0       0       1       0       0       1     300
Statistics data.      1    1    0    0    1    0  |       1       1       0       0       1      -1                               0
Series R-L-C.   5.000E+00  7.500E-02  0.000E+00   |  X0001AX0007A                5.   75.                                         0
Series R-L-C.   5.000E+00  7.500E-02  0.000E+00   |  X0001BX0007B                5.   75.                                         0
Series R-L-C.   5.000E+00  7.500E-02  0.000E+00   |  X0001CX0007C                5.   75.                                         0
Series R-L-C.   2.000E+02  0.000E+00  0.000E+00   |  X0007AX0001A              200.                                               0
Series R-L-C.   2.000E+02  0.000E+00  0.000E+00   |  X0007BX0001B              200.                                               0
Series R-L-C.   2.000E+02  0.000E+00  0.000E+00   |  X0007CX0001C              200.                                               0
Series R-L-C.   1.516E+00  1.608E+00  0.000E+00   |  X0003BXX0008            1.5155 1608.                                         0
Series R-L-C.   1.516E+00  1.608E+00  0.000E+00   |  X0003AXX0008            1.5155 1608.                                         0
Series R-L-C.   1.516E+00  1.608E+00  0.000E+00   |  X0003CXX0008            1.5155 1608.                                         0
Series R-L-C.   3.272E-01  3.472E-01  0.000E+00   |  XX0008                   .3272 347.2                                         0
Series R-L-C.   3.000E+01  0.000E+00  0.000E+00   |  XX0009                     30.                                               0
Series R-L-C.   5.000E+02  0.000E+00  0.000E+00   |  X0002AX0010A              500.                                               0
Series R-L-C.   5.000E+02  0.000E+00  0.000E+00   |  X0002BX0010B              500.                                               0
Series R-L-C.   5.000E+02  0.000E+00  0.000E+00   |  X0002CX0010C              500.                                               0
Dynamic $INCLUDE uses fixed RAM cache to delay.   |$INSERT, C:\SimulacaoATP\1\EXT1.pch
J. Marti line, mode  1   parameters begin.        |-1X0010AX0006C                2.  0.00              -2 3
J. Marti line, mode  2   parameters begin.        |-2X0010BX0006A                2.  0.00              -2 3
J. Marti line, mode  3   parameters begin.        |-3X0010CX0006B                2.  0.00              -2 3
TR(1,1 )...  0.667-0.707-0.317                    |  0.66668704 -0.70710678 -0.31743981
TI(1,1 )...  0.000 0.000 0.004                    |  0.00000000  0.00000000  0.00360196
TR(2,1 )...  0.333 0.000 0.894                    |  0.33285412  0.00000000  0.89350256
TI(2,1 )... -0.016 0.000 0.010                    | -0.01627623  0.00000000  0.00954818
TR(3,1 )...  0.667 0.707-0.317                    |  0.66668704  0.70710678 -0.31743981
TI(3,1 )...  0.000 0.000 0.004                    |  0.00000000  0.00000000  0.00360196
Dynamic $INCLUDE uses fixed RAM cache to delay.   |$INSERT, C:\SimulacaoATP\1\CONV2.pch
J. Marti line, mode  1   parameters begin.        |-1X0004AX0005C                2.  0.00              -2 3
J. Marti line, mode  2   parameters begin.        |-2X0004BX0005A                2.  0.00              -2 3
J. Marti line, mode  3   parameters begin.        |-3X0004CX0005B                2.  0.00              -2 3
TR(1,1 )...  0.667-0.707-0.317                    |  0.66668704 -0.70710678 -0.31743981
TI(1,1 )...  0.000 0.000 0.004                    |  0.00000000  0.00000000  0.00360196
TR(2,1 )...  0.333 0.000 0.894                    |  0.33285412  0.00000000  0.89350256
TI(2,1 )... -0.016 0.000 0.010                    | -0.01627623  0.00000000  0.00954818
TR(3,1 )...  0.667 0.707-0.317                    |  0.66668704  0.70710678 -0.31743981
TI(3,1 )...  0.000 0.000 0.004                    |  0.00000000  0.00000000  0.00360196
Dynamic $INCLUDE uses fixed RAM cache to delay.   |$INSERT, C:\SimulacaoATP\1\EXT3.pch
J. Marti line, mode  1   parameters begin.        |-1X0005AX0003A                2.  0.00              -2 3
J. Marti line, mode  2   parameters begin.        |-2X0005BX0003B                2.  0.00              -2 3
J. Marti line, mode  3   parameters begin.        |-3X0005CX0003C                2.  0.00              -2 3
TR(1,1 )...  0.667-0.707-0.317                    |  0.66668704 -0.70710678 -0.31743981
TI(1,1 )...  0.000 0.000 0.004                    |  0.00000000  0.00000000  0.00360196
TR(2,1 )...  0.333 0.000 0.894                    |  0.33285412  0.00000000  0.89350256
TI(2,1 )... -0.016 0.000 0.010                    | -0.01627623  0.00000000  0.00954818
TR(3,1 )...  0.667 0.707-0.317                    |  0.66668704  0.70710678 -0.31743981
TI(3,1 )...  0.000 0.000 0.004                    |  0.00000000  0.00000000  0.00360196
Dynamic $INCLUDE uses fixed RAM cache to delay.   |$INSERT, C:\SimulacaoATP\1\CONV4.pch
J. Marti line, mode  1   parameters begin.        |-1X0006AX0004C                2.  0.00              -2 3
J. Marti line, mode  2   parameters begin.        |-2X0006BX0004A                2.  0.00              -2 3
J. Marti line, mode  3   parameters begin.        |-3X0006CX0004B                2.  0.00              -2 3
TR(1,1 )...  0.667-0.707-0.317                    |  0.66668704 -0.70710678 -0.31743981
TI(1,1 )...  0.000 0.000 0.004                    |  0.00000000  0.00000000  0.00360196
TR(2,1 )...  0.333 0.000 0.894                    |  0.33285412  0.00000000  0.89350256
TI(2,1 )... -0.016 0.000 0.010                    | -0.01627623  0.00000000  0.00954818
TR(3,1 )...  0.667 0.707-0.317                    |  0.66668704  0.70710678 -0.31743981
TI(3,1 )...  0.000 0.000 0.004                    |  0.00000000  0.00000000  0.00360196
Blank card ending branches.  IBR, NTOT = 26  27   |BLANK BRANCH
Switch.   5.50E-02  1.00E-03  0.00E+00  3.33E+03  |  X0001BX0002B      .055      .001               3333.STATISTICS               0
Switch.   5.50E-02  1.00E-03  0.00E+00  3.33E+03  |  X0001AX0002A      .055      .001               3333.STATISTICS               0
Switch.   5.50E-02  1.00E-03  0.00E+00  3.33E+03  |  X0001CX0002C      .055      .001               3333.STATISTICS               0
Switch.   1.00E-02  1.00E-03  0.00E+00  0.00E+00  |  X0003CXX0009       .01      .001                    STATISTICS               1
Switch.   7.00E-01  1.00E-03  0.00E+00  0.00E+00  |  X0001BX0002B        .7      .001                    STATISTICS               0
Switch.   7.00E-01  1.00E-03  0.00E+00  0.00E+00  |  X0001AX0002A        .7      .001                    STATISTICS               0
Switch.   7.00E-01  1.00E-03  0.00E+00  0.00E+00  |  X0001CX0002C        .7      .001                    STATISTICS               0
Switch.   0.00E+00  6.98E-01  0.00E+00  0.00E+00  |  X0002AX0010A                .698                                             0
Switch.   0.00E+00  6.98E-01  0.00E+00  0.00E+00  |  X0002BX0010B                .698                                             0
Switch.   0.00E+00  6.98E-01  0.00E+00  0.00E+00  |  X0002CX0010C                .698                                             0
Switch.   7.10E-01  0.00E+00  0.00E+00  0.00E+00  |  X0002AX0010A       .71                                                       0
Switch.   7.10E-01  0.00E+00  0.00E+00  0.00E+00  |  X0002BX0010B       .71                                                       0
Switch.   7.10E-01  0.00E+00  0.00E+00  0.00E+00  |  X0002CX0010C       .71                                                       0
Blank card ending switches.   KSWTCH = 13.        |BLANK SWITCH
Source.   4.29E+05  6.00E+01  0.00E+00 -1.00E+00  |14X0007A  428660.705       60.                                     -1.      100.
Source.   4.29E+05  6.00E+01 -1.20E+02 -1.00E+00  |14X0007B  428660.705       60.     -120.                           -1.      100.
Source.   4.29E+05  6.00E+01 -2.40E+02 -1.00E+00  |14X0007C  428660.705       60.     -240.                           -1.      100.
Blank card ends electric sources.  KCONST = 3     |BLANK SOURCE

     Total network loss  P-loss  by summing injections =   2.336105973425E+08

Card of names for time-step loop output.          |  X0003AX0003BX0003C
Output voltage differences for pairs of A6 names  |-5X0003BX0003CX0003AX0003BX0003CX0003A
Blank card ending requests for output variables.  |BLANK OUTPUT

Column headings for the  7   EMTP output variables follow.  These are divided among the 5 possible classes as follows ....
  First  6     output variables are electric-network voltage differences (upper voltage minus lower voltage);
  Next   1     output variables are branch currents (flowing from the upper node to the lower node);
   Step      Time      X0003A     X0003B     X0003C     X0003B     X0003A     X0003C     X0003C
                                                        X0003C     X0003B     X0003A     XX0009
 ***      Phasor I(0) =  1.8383093E+02                     Switch  "X0001B"  to  "X0002B"  closed in the steady-state.
 ***      Phasor I(0) =  3.6688631E+02                     Switch  "X0001A"  to  "X0002A"  closed in the steady-state.
 ***      Phasor I(0) = -5.4775143E+02                     Switch  "X0001C"  to  "X0002C"  closed in the steady-state.
 ***                    Switch  "X0002A"  to  "X0010A"  closed  after  0.00000000E+00  sec.
 ***                    Switch  "X0002B"  to  "X0010B"  closed  after  0.00000000E+00  sec.
 ***                    Switch  "X0002C"  to  "X0010C"  closed  after  0.00000000E+00  sec.
      0       0.0  255360.833 -321824.51  66155.376 -387979.89 577185.343 -189205.46        0.0
    500     .5E-3  291935.155 -294524.15 3412.19884 -297936.35 586459.307 -288522.96        0.0
   1000     .1E-2    319361.6 -257270.55 -59841.782 -197428.76 576632.145 -379203.38        0.0
   1500     .0015  334686.229 -210962.48 -120843.62 -90118.865  545648.71 -455529.85        0.0
   2000      .002  522577.884 -37209.818 -547220.98 510011.162 559787.702  -.10698E7        0.0
   2500     .0025  491077.621 135781.704 -641172.61 776954.313 355295.917 -.113225E7        0.0
   3000      .003   417874.79 266263.149 -699207.44 965470.588 151611.641 -.111708E7        0.0
   3500     .0035  314182.721 359989.943 -694312.52 .1054302E7 -45807.222  -.10085E7        0.0
   4000      .004  199040.052  455066.89 -634159.82 .1089227E7 -256026.84 -833199.87        0.0
   4500     .0045  79782.6642 534784.384 -567998.53 .1102783E7 -455001.72 -647781.19        0.0
   5000      .005  -59135.286 585223.753 -484752.51 .1069976E7 -644359.04 -425617.23        0.0
   5500     .0055  -278225.23 572058.079 -262750.29 834808.364 -850283.31  15474.942        0.0
   6000      .006  -427258.68 504878.075 -55920.852 560798.927 -932136.75 371337.825        0.0
   6500     .0065   -512834.7 429076.682 116394.189 312682.493 -941911.38 629228.888        0.0
   7000      .007  -559362.47 353915.276 239637.726  114277.55 -913277.75   799000.2        0.0
   7500     .0075  -572842.45 279496.148 307888.738 -28392.589  -852338.6 880731.193        0.0
   8000      .008   -561626.5 194313.959 352271.521 -157957.56 -755940.46 913898.021        0.0
   8500     .0085  -526233.13 101012.115  383748.28 -282736.16 -627245.24 909981.405        0.0
   9000      .009  -437130.36 17638.3432 363669.383 -346031.04  -454768.7 800799.739        0.0
   9500     .0095  -333683.45 -38071.018 317256.248 -355327.27 -295612.43 650939.697        0.0
  10000       .01  -246135.61 -79189.817  272431.41 -351621.23 -166945.79 518567.016        0.0
 ***                                                             Close switch  "X0003C"  to  "XX0009"  after  1.00010000E-02  sec.
  10500     .0105  -232011.95 -181465.83 23592.4741  -205058.3 -50546.124 255604.425 786.415803
  11000      .011  -176452.62 -230834.14 24732.1426 -255566.28 54381.5167 201184.765 824.404755
  11500     .0115  -127203.78 -289686.19 27728.0315 -317414.22 162482.415 154931.807 924.267718
  12000      .012  -89591.707 -353936.46 33016.9974 -386953.45  264344.75 122608.704 1100.56658
  12500     .0125  -60322.975 -399104.34 37514.4522  -436618.8 338781.369 97837.4276 1250.48174
  13000      .013  -23573.247 -444252.85 41048.0315 -485300.88 420679.601 64621.2789 1368.26772
  13500     .0135   -28561.29 -503606.16 45450.7823 -549056.94 475044.868  74012.072 1515.02608
  14000      .014  -31428.894 -596273.72 55519.8827 -651793.61  564844.83 86948.7769 1850.66276
  14500     .0145  77952.1804 -576256.97 62213.6907 -638470.66 654209.146  -15738.49 2073.78969
  15000      .015  186180.324  -526065.2 62741.2014  -588806.4 712245.521 -123439.12 2091.37338
  15500     .0155  282025.922 -460218.48 57296.0584 -517514.54 742244.405 -224729.86 1909.86861
  16000      .016  380336.968 -379610.55 49131.5037 -428742.06 759947.521 -331205.46 1637.71679
  16500     .0165  475290.912 -278390.25 39775.9186 -318166.17 753681.159 -435514.99 1325.86395
  17000      .017  561280.714   -153077. 28412.8579 -181489.86 714357.714 -532867.86 947.095262
  17500     .0175  618023.588 -16466.787 16521.0172 -32987.805 634490.376 -601502.57 550.700572
  18000      .018  637257.493  129280.44 8599.84932 120680.591 507977.053 -628657.64 286.661644
  18500     .0185  623803.081 267698.489 3198.85831  264499.63 356104.592 -620604.22  106.62861
  19000      .019  574301.163 382275.931 -4040.0773 386316.008 192025.232 -578341.24 -134.66924
  19500     .0195  491979.232 473792.147 -12632.197 486424.344 18187.0848 -504611.43 -421.07322
  20000       .02  380341.924 540403.047 -21606.495 562009.541 -160061.12 -401948.42 -720.21649
  20500     .0205  250786.243 580575.626 -30331.348 610906.974 -329789.38 -281117.59 -1011.0449
  21000      .021  114298.854 593706.768 -38674.095 632380.864 -479407.91 -152972.95 -1289.1365
  21500     .0215  -26909.057 573303.821 -45775.154 619078.975 -600212.88 -18866.097 -1525.8385
  22000      .022  -163805.13 524668.921 -50154.991 574823.913 -688474.05 113650.136  -1671.833
  22500     .0225  -280637.07 464856.839 -51830.822 516687.662 -745493.91 228806.244 -1727.6941
  23000      .023  -371630.73 401902.112 -51295.794 453197.906 -773532.84 320334.933 -1709.8598
  23500     .0235   -437550.7 335162.969 -49141.561 384304.529 -772713.66 388409.135  -1638.052
  24000      .024  -480905.55 264225.247 -45502.342 309727.589 -745130.79 435403.204 -1516.7447
  24500     .0245  -503800.62 190751.318 -40425.188 231176.506 -694551.94 463375.431 -1347.5063
  25000      .025  -508335.27 117253.963 -34256.106 151510.069 -625589.23 474079.159 -1141.8702
  25500     .0255  -498962.56 43467.5974 -27071.449 70539.0464 -542430.16 471891.112 -902.38163
  26000      .026  -478403.19 -31232.828 -18433.477 -12799.351 -447170.36 459969.715 -614.44923
  26500     .0265  -448621.84 -108058.22 -8274.5733 -99783.646 -340563.62 440347.267 -275.81911
  27000      .027  -411582.16 -187620.93 2750.95211 -190371.88 -223961.23  414333.11 91.6984037
  27500     .0275  -367792.28 -268438.64 13842.6729 -282281.32 -99353.639 381634.957  461.42243
  28000      .028  -316495.31 -347490.44 24393.1261 -371883.57 30995.1328 340888.437 813.104203
  28500     .0285  -256113.51 -420589.01 33926.0875  -454515.1 164475.502 290039.594 1130.86958
  29000      .029  -185592.55 -483398.78 41975.7256  -525374.5 297806.226 227568.275 1399.19085
  29500     .0295  -106102.89 -532450.03 48251.9967 -580702.03 426347.143 154354.883 1608.39989
  30000       .03  -19375.141 -563917.61 52721.3167 -616638.92 544542.466 72096.4573 1757.37722
  30500     .0305  73383.8183 -573272.79 55417.3018 -628690.09  646656.61 -17966.517 1847.24339
  31000      .031  170297.154  -556868.5 56346.7357 -613215.24 727165.657 -113950.42 1878.22452
  31500     .0315   267533.82 -513623.99 55487.0551 -569111.04 781157.806 -212046.76  1849.5685
  32000      .032  359748.659 -445219.23 52848.9221 -498068.15  804967.89 -306899.74 1761.63074
  32500     .0325  441407.925 -355226.77 48488.4295  -403715.2 796634.697  -392919.5 1616.28098
  33000      .033   507576.41 -248520.69 42474.7605 -290995.45 756097.101 -465101.65 1415.82535
  33500     .0335  554052.025 -131068.12  34960.761 -166028.89 685120.149 -519091.26  1165.3587
  34000      .034  577691.703 -9391.9483 26256.6043 -35648.553 587083.651  -551435.1 875.220144
  34500     .0345  576635.753 109924.771  16765.579 93159.1916 466710.982 -559870.17 558.852634
  35000      .035  550561.879 220772.891 6866.61578 213906.275 329788.988 -543695.26 228.887193
  35500     .0355  500832.835 318153.958 -3118.8619  321272.82 182678.877  -503951.7 -103.96206
  36000      .036  430344.004 398602.418 -12891.878 411494.296 31741.5866 -443235.88 -429.72927
  36500     .0365   343189.16 460271.992 -22161.271 482433.263 -117082.83 -365350.43 -738.70905
  37000      .037   244096.11 502616.673 -30659.011 533275.684 -258520.56 -274755.12  -1021.967
  37500     .0375  137856.188 525925.373  -38132.58 564057.953 -388069.18 -175988.77  -1271.086
  38000      .038  29117.2803 531108.239 -44326.092 575434.331 -501990.96 -73443.373 -1477.5364
  38500     .0385  -77669.866 519643.891 -48987.527 568631.419 -597313.76 28682.3384 -1632.9176
  39000      .039  -178446.54 493366.804 -51898.052 545264.856 -671813.34 126548.487 -1729.9351
  39500     .0395  -269843.45 454048.853 -52901.518 506950.371  -723892.3  216941.93 -1763.3839
  40000       .04  -349324.76 403086.648 -51920.551 455007.199 -752411.41 297404.211  -1730.685
  40500     .0405  -415080.93 341509.302 -48967.058  390476.36 -756590.23 366113.867 -1632.2353
  41000      .041  -465857.19 270186.628 -44149.639 314336.267 -736043.82 421707.551 -1471.6546
  41500     .0415  -500845.71 190072.937 -37662.493  227735.43 -690918.65 463183.217 -1255.4164
  42000      .042  -519609.34 102420.061 -29758.978 132179.038  -622029.4 489850.363 -991.96592
  % % % % % %   Suspended simulation;  plot data space exhausted;  SPY SPACE is required.   LIMBUF =  340000.
  % % % % % %   Suspended simulation;  plot data space exhausted;  SPY SPACE is required.   LIMBUF =  340000.
  +++  Time-sharing disabled.   Send  user-keyed interrupt to silence alarm.
   Current values.  INDBUF  INDBEG  LIMBUF  MFLUSH  NUMDCD  KCARD1  KCARD2
                    339994      50  340000    1000      46       1      50
Plot timespan now in memory (in sec) = 0.00000000E+00   4.24930000E-02
   ++++  Begin plot-data copy from memory to disk.   MFLUSH, INDBUF, N4, Tbeg,  Tend = 1001  339994       1  -1.00000E+00
1.00000E+19
  42500     .0425  -522012.96 8935.34654 -20731.264 29666.6109 -530948.31 501281.695 -691.04215
  43000      .043  -508170.29 -88098.533 -10904.918 -77193.615 -420071.76 497265.374 -363.49728
  43500     .0435  -478424.76 -185745.06 -635.98887 -185109.07  -292679.7 477788.772 -21.199629
  44000      .044  -433370.93 -280425.34 9700.53907 -290125.88 -152945.59 443071.472 323.351302
  44500     .0445  -373910.35 -368070.67 19726.3371 -387797.01 -5839.6789 393636.685 657.544569
  45000      .045  -301348.48 -444433.36 29073.3077 -473506.67 143084.885 330421.785 969.110256
  45500     .0455  -217502.41 -505488.44 37397.8445 -542886.29 287986.038  254900.25 1246.59482
  46000      .046  -124754.46 -547810.81 44397.5471 -592208.36  423056.35 169152.009 1479.91824
  46500     .0465  -26019.364 -568861.56 49826.3597 -618687.92 542842.194 75845.7241 1660.87866
  47000      .047  75350.8046 -567190.95 53503.9145 -620694.87 642541.759  -21846.89 1783.46382
  47500     .0475  175686.192 -542578.01 55318.9437 -597896.95 718264.198 -120367.25 1843.96479
  48000      .048  271142.811 -496081.74 55228.7992 -551310.53 767224.546 -215914.01 1840.95997
  48500     .0485  357887.527 -429963.11 53255.7596 -483218.87 787850.638 -304631.77 1775.19199
  49000      .049  432313.484 -347479.48   49480.94 -396960.42 779792.969 -382832.54 1649.36467
  49500     .0495  491254.896 -252596.66 44038.7334 -296635.39 743851.556 -447216.16 1467.95778
  50000       .05  532173.575  -149673.4 37113.7431 -186787.14 681846.971 -495059.83 1237.12477
  50500     .0505  553300.709 -43159.776 28938.4884 -72098.264 596460.485 -524362.22 964.616278
  51000      .051  553727.817 62666.2547 19788.7229 42877.5318 491061.562 -533939.09 659.624097
  51500     .0515  533446.584 163909.333 9975.54208 153933.791 369537.251 -523471.04 332.518069
  52000      .052  493339.326 257202.599 -164.38015 257366.979 236136.728 -493503.71 -5.4793382
  52500     .0525  435120.656 339779.977 -10279.665 350059.642  95340.679 -445400.32 -342.65549
  53000      .053  361230.139 409473.823 -20016.345 429490.167 -48243.684 -381246.48 -667.21149
  53500     .0535   274683.86 464654.236 -29030.785 493685.022 -189970.38 -303714.64 -967.69284
  54000      .054  178904.848 504142.649 -37002.309 541144.958  -325237.8 -215907.16 -1233.4103
  54500     .0545  77554.4374 527133.867 -43644.738 570778.605 -449579.43 -121199.18 -1454.8246
  55000      .055  -25623.685 533147.166 -48716.721 581863.887 -558770.85 -23093.036 -1623.8907
  55500     .0555  -126945.35 522011.282 -52030.805 574042.087 -648956.63 74914.5442 -1734.3602
  56000      .056  -222912.52 493881.611 -53461.018 547342.628 -716794.14 169451.507 -1782.0339
  56500     .0565  -310319.44 449286.544 -52948.696  502235.24 -759605.98 257370.739 -1764.9565
 ***                                                             Open  switch  "X0001B"  to  "X0002B"  after  5.67130000E-02  sec.
  57000      .057  -386334.09 389194.774 -50506.212 439700.987 -775528.86 335827.875 -1683.5404
  57500     .0575  -448556.98 315086.874  -46217.95 361304.824 -763643.85 402339.029 -1540.5983
  58000      .058  -495063.16 229008.885 -40237.835  269246.72 -724072.05 454825.328 -1341.2612
  58500     .0585  -527047.95 141018.543  -32980.66 173999.203 -668066.49 494067.291 -1099.3553
  59000      .059  -547208.05   78169.65 -25535.953 103705.603  -625377.7 521672.094 -851.19843
  59500     .0595  -538630.18 24066.7178 -16167.161 40233.8785  -562696.9 522463.018 -538.90535
 ***                                                             Open  switch  "X0001A"  to  "X0002A"  after  5.95200000E-02  sec.
  60000       .06  -511677.71 -33843.338 -6158.7626 -27684.575 -477834.37 505518.948 -205.29209
 ***                                                             Open  switch  "X0001C"  to  "X0002C"  after  6.00750000E-02  sec.
  60500     .0605  -469434.37 -96730.576 4155.41467 -100885.99 -372703.79 473589.785 138.513822
  61000      .061  -411495.73 -163423.08 14394.8791 -177817.96 -248072.65  425890.61 479.829303
  61500     .0615  -357667.74 -229461.73 25133.4611 -254595.19 -128206.02 382801.204 837.782037
  62000      .062  -295243.39 -271791.99 31894.4954 -303686.48 -23451.406 327137.887 1063.14985
  62500     .0625  -236559.26 -299885.79 29822.9887 -329708.78 63326.5234 266382.252 994.099623
  63000      .063  -179198.36 -337310.78 24250.5178  -361561.3 158112.425 203448.877 808.350593
  63500     .0635  -105569.72 -369810.45 18533.9945 -388344.45  264240.73 124103.719 617.799815
  64000      .064  -20149.489 -394544.85 11933.6603 -406478.51 374395.363 32083.1493 397.788677
  64500     .0645  68654.8714 -417679.17 4606.53242  -422285.7 486334.037 -64048.339 153.551081
  65000      .065  144789.318 -434361.49 -2621.2378 -431740.25 579150.806 -147410.56 -87.374593
  65500     .0655  200487.092  -443230.2 -8972.6984  -434257.5 643717.293 -209459.79 -299.08995
  66000      .066  216299.966  -468163.2 -12060.436 -456102.77  684463.17  -228360.4 -402.01452
  66500     .0665  256338.451 -474824.19 -11907.787 -462916.41 731162.644 -268246.24 -396.92622
  67000      .067  310352.346 -466351.19 -10575.071 -455776.12 776703.536 -320927.42 -352.50236
  67500     .0675  364117.733 -450743.38 -8215.1109 -442528.27 814861.111 -372332.84 -273.83703
  68000      .068  411354.651 -433709.09  -4347.007 -429362.09 845063.744 -415701.66 -144.90023
  68500     .0685  444367.027 -401780.06  795.05572 -402575.12 846147.092 -443571.97 26.5018573
  69000      .069  455756.538 -352584.37 6218.78288 -358803.16 808340.911 -449537.76 207.292763
  69500     .0695  461194.129 -297982.57 11140.1481 -309122.71 759176.696 -450053.98 371.338269
  70000       .07   476009.29 -239726.65  12585.175 -252311.83  715735.94 -463424.12 419.505834
  70500     .0705  478880.274 -187436.39 11951.2005 -199387.59 666316.662 -466929.07 398.373351
  71000      .071  480286.429 -131914.53 11016.6673  -142931.2 612200.958 -469269.76 367.222244
  71500     .0715  479128.475 -70277.187 9583.26838 -79860.455 549405.662 -469545.21 319.442279
  72000      .072  460682.052  1076.5547  7122.2265 -6045.6718 459605.497 -453559.83  237.40755
  72500     .0725  419587.373 77557.0262 3886.87679 73670.1495 342030.346  -415700.5  129.56256
  73000      .073  374874.282 147163.987  347.52996 146816.457 227710.295 -374526.75  11.584332
  73500     .0735   320510.64 196493.918 -2230.4232 198724.341 124016.722 -322741.06 -74.347439
  74000      .074  265562.328 239652.184 -3345.4039 242997.588 25910.1438 -268907.73 -111.51346
  74500     .0745  216619.422 282133.999 -3890.9647 286024.963 -65514.577 -220510.39 -129.69882
  75000      .075  163881.167 323074.135 -3886.0673 326960.202 -159192.97 -167767.23 -129.53558
  75500     .0755  96165.6222 363363.966 -2898.0692 366262.035 -267198.34 -99063.691 -96.602306
  76000      .076  19238.9375 406251.357 -1080.7536 407332.111 -387012.42 -20319.691 -36.025119
  76500     .0765  -50356.059 438783.292  1107.4352 437675.857 -489139.35 51463.4937 36.9145068
  77000      .077  -112775.26 456506.773 3626.12067 452880.652 -569282.03 116401.378 120.870689
  77500     .0775  -165151.48 466044.346  5314.6735 460729.672 -631195.82 170466.152 177.155783
  78000      .078  -215701.82 462183.134 6069.05539 456114.078 -677884.96 221770.878 202.301846
  78500     .0785  -265893.01 453754.993 6648.97566 447106.017 -719648.01 272541.989 221.632522
  79000      .079  -317650.25 448425.603 6976.61106 441448.992 -766075.85 324626.862 232.553702
  79500     .0795  -366785.02 443220.567 6422.56454 436798.003 -810005.59 373207.585 214.085485
  80000       .08  -404001.57 424314.276 5188.08035 419126.196 -828315.85  409189.65 172.936012
  80500     .0805  -428417.51 391772.036 3779.79342 387992.243 -820189.54 432197.302 125.993114
  81000      .081  -445510.38 346089.149 2503.76126 343585.387 -791599.53 448014.139 83.4587086
  81500     .0815  -456160.85 290022.327 1756.58559 288265.741 -746183.18 457917.435 58.5528531
  82000      .082  -461741.54 234860.843 1250.42537 233610.418 -696602.39 462991.968 41.6808458
  82500     .0825  -467003.84 184630.697 719.190967 183911.507 -651634.54 467723.034 23.9730322
  83000      .083  -467267.54 133775.632 382.292313  133393.34 -601043.17 467649.829 12.7430771
  83500     .0835  -452074.64  75690.188 577.258191 75112.9298 -527764.83 452651.902 19.2419397
  84000      .084  -422591.44 13278.3186 1232.85506 12045.4635 -435869.76 423824.298 41.0951687
  84500     .0845  -384389.51 -52658.024 2215.25914 -54873.283 -331731.49  386604.77 73.8419715
  % % % % % %   Suspended simulation;  plot data space exhausted;  SPY SPACE is required.   LIMBUF =  340000.
  % % % % % %   Suspended simulation;  plot data space exhausted;  SPY SPACE is required.   LIMBUF =  340000.
  +++  Time-sharing disabled.   Send  user-keyed interrupt to silence alarm.
   Current values.  INDBUF  INDBEG  LIMBUF  MFLUSH  NUMDCD  KCARD1  KCARD2
                    339994      50  340000    1001      46       1      50
Plot timespan now in memory (in sec) = 4.24919985E-02   8.49850000E-02
   ++++  Begin plot-data copy from memory to disk.   MFLUSH, INDBUF, N4, Tbeg,  Tend = 1002  339994       1  -1.00000E+00
1.00000E+19
  85000      .085  -338340.45 -118415.11 3181.77668 -121596.89 -219925.34 341522.228 106.059223
  85500     .0855  -293971.52 -179386.19 3873.38796 -183259.58 -114585.33  297844.91 129.112932
  86000      .086  -253378.64 -230302.97 4310.79782 -234613.76  -23075.67 257689.434 143.693261
  86500     .0865   -206228.2 -275132.88 4513.24609 -279646.13 68904.6813 210741.449 150.441536
  87000      .087  -146437.33 -317949.54 4392.74869 -322342.29 171512.206 150830.082 146.424956
  87500     .0875  -80319.907 -358465.27 3999.30549 -362464.58 278145.363 84319.2129 133.310183
  88000      .088  -11964.762  -395741.2  3510.0513 -399251.25  383776.44 15474.8135  117.00171
  88500     .0885  54677.0963 -427766.99 3022.35866 -430789.35 482444.083 -51654.738 100.745289
  89000      .089  111803.898 -450036.75 2660.52857 -452697.28 561840.645 -109143.37 88.6842858
  89500     .0895   160324.93 -458414.57 2182.13765 -460596.71 618739.501 -158142.79 72.7379216
  90000       .09  209698.708  -459373.7 1493.93067 -460867.63 669072.411 -208204.78 49.7976891
  90500     .0905  261785.374 -456887.85 893.646849  -457781.5 718673.224 -260891.73 29.7882283
  91000      .091  312206.973 -449093.51 650.758255 -449744.26 761300.479 -311556.22 21.6919418
  91500     .0915  358944.211 -434738.76 723.632048 -435462.39 793682.973 -358220.58 24.1210683
  92000      .092  396880.073 -412630.75  1043.9892 -413674.74 809510.826 -395836.08   34.79964
  92500     .0925  421252.889 -379460.37 1453.63624 -380914.01 800713.259 -419799.25 48.4545414
  93000      .093  432848.597 -335973.53 1675.81358 -337649.34 768822.127 -431172.78 55.8604526
  93500     .0935  440843.388 -289563.03 1747.54032 -291310.57 730406.419 -439095.85 58.2513441
  94000      .094   447470.94 -241627.67 1854.30738 -243481.97 689098.606 -445616.63 61.8102459
  94500     .0945  450111.203 -190202.87  1952.3412 -192155.22 640314.077 -448158.86   65.07804
  95000      .095  445940.983 -136259.35 1970.85188 -138230.21 582200.338 -443970.13 65.6950626
  95500     .0955   430441.74  -78863.99 1987.19965 -80851.189  509305.73 -428454.54 66.2399884
  96000      .096  401095.491 -16105.527 1945.39783 -18050.925 417201.018 -399150.09 64.8465945
  96500     .0965  361156.874 48847.7824 1769.24968 47078.5327 312309.091 -359387.62 58.9749895
  97000      .097   319974.89 109490.864 1493.61993 107997.244 210484.026 -318481.27 49.7873309
  97500     .0975  278597.418 165018.839 1200.32062 163818.519 113578.579  -277397.1 40.0106875
  98000      .098  234551.687 216542.515  955.16839 215587.346 18009.1721 -233596.52 31.8389463
  98500     .0985  186466.519 263819.266  878.74857 262940.517 -77352.747 -185587.77  29.291619
  99000      .099  131742.329 309059.171 994.529289 308064.642 -177316.84  -130747.8 33.1509763
  99500     .0995  69083.4034 353452.401 1154.31043  352298.09   -284369. -67929.093 38.4770144
 100000       0.1  4294.01391 392755.776 1258.41422 391497.361 -388461.76 -3035.5997 41.9471406
 100500     .1005  -55297.517 421409.493  1331.9014 420077.592 -476707.01  56629.418 44.3967132
 101000      .101  -110016.21 439804.378 1458.79303 438345.585 -549820.58 111474.999 48.6264343
 101500     .1015  -161344.64 449837.386 1656.72884 448180.657 -611182.03 163001.371 55.2242947
 102000      .102   -209786.7 452878.636 1900.21043 450978.426 -662665.34  211686.91 63.3403477
 102500     .1025  -258202.81 451325.669 2129.12874 449196.541 -709528.48 260331.936 70.9709578
 103000      .103  -307289.73 446149.514 2254.91323   443894.6 -753439.24 309544.642 75.1637745
 103500     .1035    -350141. 433228.491 2250.54686 430977.944 -783369.49 352391.543 75.0182287
 104000      .104  -381941.47 408993.111 2205.79278 406787.318 -790934.58 384147.261 73.5264259
 104500     .1045  -404161.11 375353.248 2183.94758 373169.301 -779514.36 406345.054 72.7982525
 105000      .105  -418633.66 334600.438 2162.37647 332438.061  -753234.1 420796.039 72.0792156
 105500     .1055  -427021.15 288969.457 2145.60524 286823.852 -715990.61 429166.753 71.5201748
 106000      .106   -432234.2 241454.695 2159.07247 239295.622 -673688.89 434393.271 71.9690822
 106500     .1065    -433954.   193542.7 2137.23743 191405.463  -627496.7 436091.236 71.2412478
 107000      .107  -425912.94  141428.94 2051.08449 139377.855 -567341.88 427964.029  68.369483
 107500     .1075  -405942.39 83377.4917 1990.47349 81387.0182 -489319.88 407932.861 66.3491162
 108000      .108  -376914.36 22019.0378  1994.2842 20024.7536  -398933.4 378908.644 66.4761401
 108500     .1085  -341431.44 -40346.506 2045.56391  -42392.07 -301084.94 343477.006 68.1854637
 109000      .109  -302135.28 -100906.42 2140.41898 -103046.84 -201228.86 304275.695 71.3472993
 109500     .1095  -261683.55 -156389.66  2229.9767 -158619.63 -105293.89 263913.526 74.3325565
 110000       .11  -219392.81 -206240.79 2211.69323 -208452.49 -13152.019 221604.506 73.7231076
 110500     .1105  -170415.97 -254261.24 2100.77936 -256362.02 83845.2749 172516.747 70.0259785
 111000      .111  -114522.69 -301004.08 2002.86353 -303006.95 186481.397 116525.551 66.7621177
 111500     .1115  -55366.778  -344003.4 1945.87513 -345949.28 288636.625 57312.6535 64.8625042
 112000      .112  4205.17813 -381495.16 1911.66744 -383406.82 385700.335 -2293.5107  63.722248
 112500     .1125  61034.2873 -411142.48 1884.53722 -413027.02 472176.772  -59149.75 62.8179073
 113000      .113  112703.514 -430697.52 1807.51099 -432505.03 543401.031   -110896. 60.2503665
 113500     .1135  160805.991 -441201.55  1636.4806 -442838.03 602007.543 -159169.51 54.5493533
 114000      .114  209539.714   -446373. 1430.48266 -447803.48 655912.714 -208109.23 47.6827554
 114500     .1145  258075.629 -446448.11 1273.32577 -447721.44 704523.739  -256802.3 42.4441923
 115000      .115  302885.616 -439907.72 1179.49523 -441087.21 742793.332 -301706.12 39.3165075
 115500     .1155  341576.098 -425956.89 1137.87596 -427094.76 767532.984 -340438.22 37.9291988
 116000      .116  371440.786 -403304.85 1136.01056 -404440.86 774745.639 -370304.78 37.8670187
 116500     .1165   391123.03 -371026.76 1109.74688  -372136.5 762149.786 -390013.28 36.9915627
 117000      .117  403806.565 -331714.27 1013.86216 -332728.13 735520.834  -402792.7 33.7954054
 117500     .1175  413303.193 -289150.52 894.783846 -290045.31 702453.717 -412408.41 29.8261282
 118000      .118  418470.455 -243726.33 821.063472  -244547.4 662196.788 -417649.39 27.3687824
 118500     .1185  416811.243  -194797.2 804.636326 -195601.84 611608.446 -416006.61 26.8212109
 119000      .119  406894.394 -142269.97 832.494812 -143102.47 549164.368  -406061.9 27.7498271
 119500     .1195   387132.01 -85685.132 881.795315 -86566.927 472817.142 -386250.22 29.3931772
 120000       .12  357617.907 -25280.167 883.554046 -26163.721 382898.074 -356734.35 29.4518015
 120500     .1205   322826.42 35341.6267 809.445958 34532.1807 287484.793 -322016.97 26.9815319
 121000      .121  286210.524 92806.0051 726.442308 92079.5627 193404.519 -285484.08 24.2147436
 121500     .1215  246900.125 147084.287 698.125782 146386.161 99815.8382   -246202. 23.2708594
 122000      .122  203535.215 198575.242 724.179678 197851.062 4959.97382 -202811.04 24.1393226
 122500     .1225  155415.171 247314.663 791.288798 246523.374 -91899.491 -154623.88 26.3762933
 123000      .123  101945.272 293622.385 875.667675 292746.718 -191677.11  -101069.6 29.1889225
 123500     .1235  44484.6034 336818.914 919.263306 335899.651 -292334.31  -43565.34 30.6421102
 124000      .124  -11990.669 373386.771 912.680122 372474.091 -385377.44  12903.349 30.4226707
 124500     .1245  -64725.561 401197.293 919.012275 400278.281 -465922.85 65644.5734 30.6337425
 125000      .125  -114632.61 421066.276 972.926295  420093.35 -535698.88 115605.533 32.4308765
 125500     .1255  -162639.96 433790.659 1063.93508 432726.723 -596430.61 163703.891 35.4645025
 126000      .126  -209309.66 440073.967 1182.93837 438891.028 -649383.62 210492.595  39.431279
 126500     .1265  -254878.06  440802.39 1298.69257 439503.697 -695680.45 256176.756 43.2897522
 127000      .127  -297415.58 435450.701 1358.21638 434092.484 -732866.28 298773.795 45.2738794
  % % % % % %   Suspended simulation;  plot data space exhausted;  SPY SPACE is required.   LIMBUF =  340000.
  % % % % % %   Suspended simulation;  plot data space exhausted;  SPY SPACE is required.   LIMBUF =  340000.
  +++  Time-sharing disabled.   Send  user-keyed interrupt to silence alarm.
   Current values.  INDBUF  INDBEG  LIMBUF  MFLUSH  NUMDCD  KCARD1  KCARD2
                    339994      50  340000    1002      46       1      50
Plot timespan now in memory (in sec) = 8.49839970E-02   1.27477000E-01
   ++++  Begin plot-data copy from memory to disk.   MFLUSH, INDBUF, N4, Tbeg,  Tend = 1003  339994       1  -1.00000E+00
1.00000E+19
 127500     .1275  -332550.28 421368.105 1366.69784 420001.407 -753918.38 333916.975 45.5565947
 128000      .128  -358904.17 397996.299 1383.05304 396613.246 -756900.47 360287.222 46.1017679
 128500     .1285  -378027.51  367119.33   1430.344 365688.986 -745146.84 379457.852 47.6781335
 129000      .129  -391103.14 330279.158 1499.38207 328779.776 -721382.29 392602.517 49.9794024
 129500     .1295  -399132.07 289013.679 1580.79694 287432.882 -688145.75 400712.869 52.6932313
 130000       .13  -402684.77 244800.043  1638.5347 243161.508 -647484.81 404323.301 54.6178232
 130500     .1305  -399942.53 197308.449 1635.25866  195673.19 -597250.98 401577.791 54.5086219
 131000      .131  -387855.61 144869.606 1595.92186 143273.684 -532725.21 389451.529 53.1973954
 131500     .1315  -366689.65 88195.5461 1574.99219 86620.5539 -454885.19  368264.64 52.4997397
 132000      .132   -338800.4 29608.5802 1583.38131 28025.1989 -368408.99 340383.786 52.7793771
 132500     .1325  -305940.61 -28982.429  1606.4181 -30588.847 -276958.18 307547.024 53.5472699
 133000      .133  -269719.13 -85762.369 1631.40166 -87393.771 -183956.76 271350.532 54.3800555
 133500     .1335  -231098.77 -139251.76 1623.22777 -140874.99 -91847.007 232721.996 54.1075922
 134000      .134   -188507.9 -190027.26 1558.14197  -191585.4 1519.36528 190066.038 51.9380658
 134500     .1345   -140224.4 -239283.79 1470.74996 -240754.54 99059.3978 141695.146 49.0249987
 135000      .135  -87779.837 -285893.53 1405.85595 -287299.38 198113.691 89185.6934  46.861865
 135500     .1355  -33933.173 -327829.12 1365.49585 -329194.61 293895.944 35298.6693 45.5165282
 136000      .136   19294.691 -363577.87 1335.43875 -364913.31 382872.566 -17959.252 44.5146251
 136500     .1365   70179.116 -391822.45 1302.54836   -393125. 462001.565 -68876.568 43.4182787
 137000      .137  117951.742 -411861.76 1233.65715 -413095.41 529813.498 -116718.08 41.1219051
 137500     .1375  164268.605 -425088.72 1117.41766 -426206.13 589357.322 -163151.19 37.2472554
 138000      .138  210094.836 -432849.97 996.769867 -433846.74 642944.806 -209098.07 33.2256622
 138500     .1385  253512.757 -434378.91 909.637598 -435288.54 687891.663 -252603.12 30.3212533
 139000      .139  292144.253 -428558.26 852.809522 -429411.07 720702.511 -291291.44 28.4269841
 139500     .1395  324393.035 -414789.62 812.720449 -415602.34 739182.656 -323580.31 27.0906816
 140000       .14  349135.968 -392707.14 772.048774 -393479.18 741843.104 -348363.92 25.7349591
 140500     .1405  366509.182 -362806.55 699.812161 -363506.37 729315.737 -365809.37  23.327072
 141000      .141  378700.129 -327405.34 596.795906 -328002.14 706105.468 -378103.33 19.8931969
 141500     .1415  386595.821 -288146.54 508.130325 -288654.67 674742.362 -386087.69 16.9376775
 142000      .142  388689.266 -244835.01 460.481103 -245295.49  633524.28 -388228.78 15.3493701
 142500     .1425  383552.512 -197262.63  444.41484 -197707.05 580815.142  -383108.1  14.813828
 143000      .143  370493.423 -145642.91 446.377694 -146089.29  516136.33 -370047.05 14.8792565
 143500     .1435  349378.327 -90375.231 445.604419 -90820.835 439753.558 -348932.72 14.8534806
 144000      .144  321548.048 -32853.936 415.611983 -33269.548 354401.984 -321132.44 13.8537328
 144500     .1445  289786.086 24219.4147 366.727843 23852.6868 265566.671 -289419.36 12.2242614
 145000      .145  255109.559 79338.9061 340.965011 78997.9411 175770.653 -254768.59 11.3655004
 145500     .1455  216631.709 132540.235 354.987215 132185.248 84091.4737 -216276.72 11.8329072
 146000      .146  173843.362  183732.86 396.754088 183336.106 -9889.4984 -173446.61 13.2251363
 146500     .1465  126854.004  232550.01 453.238419 232096.771 -105696.01 -126400.77 15.1079473
 147000      .147  76306.5823 278505.074 501.452188 278003.622 -202198.49  -75805.13 16.7150729
 147500     .1475   24369.728 320072.252 520.094207 319552.158 -295702.52 -23849.634 17.3364736
 148000      .148  -26096.635  355018.24  526.60438 354491.635 -381114.87 26623.2391 17.5534793
 148500     .1485  -74308.247 382650.803 557.841175 382092.962 -456959.05 74866.0877 18.5947058
 149000      .149  -120918.06 403498.559 621.711454 402876.847 -524416.62 121539.774 20.7237151
 149500     .1495  -166100.93 417907.661 703.963186 417203.697 -584008.59 166804.892 23.4654395
 150000       .15  -209561.97 426047.339 790.661224 425256.678 -635609.31 210352.629 26.3553741
 150500     .1505   -250523.2 427956.437  858.31447 427098.123 -678479.63 251381.511 28.6104823
 151000      .151  -286786.87 422638.948 892.367047 421746.581 -709425.82 287679.237 29.7455682
 151500     .1515  -316194.07 408928.959 915.857485 408013.101 -725123.03  317109.93 30.5285828
 152000      .152  -338765.34 387308.472 959.251746 386349.221 -726073.81 339724.589 31.9750582
 152500     .1525  -355510.18 359099.358 1023.18215 358076.176 -714609.54 356533.362 34.1060718
 153000      .153  -366948.41  325366.94  1093.3468 324273.593 -692315.35 368041.759 36.4448933
 153500     .1535  -373229.87  287011.51 1156.24033 285855.269 -660241.38 374386.113 38.5413445
 154000      .154  -373993.82 244672.212 1190.70604 243481.506 -618666.03 375184.528 39.6902015
 154500     .1545  -367663.29 197972.718 1190.27066 196782.447 -565636.01 368853.561 39.6756886
 155000      .155  -353274.52 146759.017  1181.8426 145577.174 -500033.53  354456.36 39.3947535
 155500     .1555  -331912.88 92392.5789 1189.52798 91203.0509 -424305.46  333102.41 39.6509325
 156000      .156  -305198.43 36660.2098 1209.27449 35450.9353 -341858.64 306407.705 40.3091496
 156500     .1565  -274230.79 -19018.757 1228.33529 -20247.092 -255212.03 275459.123 40.9445095
 157000      .157  -239751.78 -73453.867 1233.64686 -74687.514 -166297.91 240985.428 41.1215621
 157500     .1575   -201862.2 -125935.44  1207.4232 -127142.86 -75926.766 203069.625   40.24744
 158000      .158  -159686.77 -176710.43 1151.33034 -177861.76 17023.6591 160838.097  38.377678
 158500     .1585  -113322.94 -225546.03 1094.12903 -226640.16 112223.089 114417.071 36.4709678
 159000      .159  -64583.197 -270975.08 1053.77299 -272028.85 206391.882   65636.97 35.1257664
 159500     .1595  -15373.234 -311476.62 1023.10835 -312499.73 296103.385 16396.3422 34.1036116
 160000       .16  32992.8623 -345999.78 990.945476 -346990.72  378992.64 -32001.917 33.0315159
 160500     .1605  79613.2292 -373798.72 944.703157 -374743.42 453411.948 -78668.526 31.4901052
 161000      .161  124405.782 -394807.25 870.992666 -395678.24 519213.031 -123534.79 29.0330889
 161500     .1615  168004.271 -409761.11 778.826638 -410539.94 577765.385 -167225.44 25.9608879
 162000      .162  209889.711 -418730.12 696.450328 -419426.57  628619.83 -209193.26 23.2150109
 162500     .1625  248264.306 -420855.48 635.692412 -421491.17 669119.786 -247628.61 21.1897471
 163000      .163  281597.964 -415470.89 587.360634 -416058.25 697068.849  -281010.6 19.5786878
 163500     .1635  309014.579 -402401.93 541.362047 -402943.29 711416.505 -308473.22 18.0454016
 164000      .164  330114.583 -381798.57 485.519814 -382284.09 711913.156 -329629.06 16.1839938
 164500     .1645  345435.302 -354569.48 410.612936 -354980.09 700004.777 -345024.69 13.6870979
 165000      .165  355920.186  -322146.2 330.654132 -322476.86 678066.391 -355589.53 11.0218044
 165500     .1655  361280.316 -285127.97 270.881598 -285398.85 646408.285 -361009.43  9.0293866
 166000      .166  360365.461 -243423.36  236.97826 -243660.33 603788.818 -360128.48 7.89927532
 166500     .1665  352507.158 -197222.65 218.190457 -197440.84 549729.807 -352288.97 7.27301522
 167000      .167  337677.079 -147121.94 204.490568 -147326.43 484799.019 -337472.59 6.81635227
 167500     .1675  316339.169 -93990.768  183.72176  -94174.49 410329.937 -316155.45 6.12405866
 168000      .168  289862.557 -39391.089 150.333467 -39541.423 329253.646 -289712.22 5.01111556
 168500     .1685  259650.373 14961.4223 121.129805 14840.2925 244688.951 -259529.24 4.03766017
 169000      .169  225836.613 68326.1009 116.743464 68209.3574 157510.512 -225719.87 3.89144879
 169500     .1695  188013.151 120492.687 137.140798 120355.546 67520.4643 -187876.01 4.57135993
  % % % % % %   Suspended simulation;  plot data space exhausted;  SPY SPACE is required.   LIMBUF =  340000.
  % % % % % %   Suspended simulation;  plot data space exhausted;  SPY SPACE is required.   LIMBUF =  340000.
  +++  Time-sharing disabled.   Send  user-keyed interrupt to silence alarm.
   Current values.  INDBUF  INDBEG  LIMBUF  MFLUSH  NUMDCD  KCARD1  KCARD2
                    339994      50  340000    1003      46       1      50
Plot timespan now in memory (in sec) = 1.27476007E-01   1.69969000E-01
   ++++  Begin plot-data copy from memory to disk.   MFLUSH, INDBUF, N4, Tbeg,  Tend = 1004  339994       1  -1.00000E+00
1.00000E+19
 170000       .17  146306.905 170990.403 170.546957 170819.856 -24683.498 -146136.36 5.68489855
 170500     .1705  101374.284 219090.314  206.57148 218883.742 -117716.03 -101167.71   6.885716
 171000      .171  54319.5881 263862.245  233.45466 263628.791 -209542.66 -54086.133 7.78182198
 171500     .1715  6968.69443 303840.471 249.277434 303591.193 -296871.78  -6719.417 8.30924779
 172000      .172  -39213.436 337770.504 271.894742  337498.61 -376983.94  39485.331 9.06315808
 172500     .1725  -84028.255 365432.936 316.649864 365116.286 -449461.19 84344.9047 10.5549955
 173000      .173  -127599.79 387000.833 378.944527 386621.889 -514600.63 127978.738 12.6314842
 173500     .1735  -169566.45 402427.255 446.878386 401980.377 -571993.71 170013.332 14.8959462
 174000      .174   -209194.3 411527.388 510.011124 411017.377 -620721.69 209704.313 17.0003708
 174500     .1745  -245365.73 413936.469  557.85904  413378.61  -659302.2 245923.586 18.5953013
 175000      .175  -276503.03 408911.349 592.291681 408319.057 -685414.38 277095.319  19.743056
 175500     .1755  -301722.97 396178.459 631.174413 395547.284 -697901.43 302354.146 21.0391471
 176000      .176  -321323.95 376421.868 685.000082 375736.868 -697745.82 322008.954 22.8333361
 176500     .1765  -335749.26 350543.247 746.421607 349796.826 -686292.51 336495.683 24.8807202
 177000      .177  -345017.87 319210.351 804.462891 318405.888 -664228.23 345822.337 26.8154297
 177500     .1775  -348895.81 282978.853 849.465475 282129.387 -631874.66 349745.271 28.3155158
 178000      .178  -346793.47  242159.25 873.446469 241285.803 -588952.72 347666.919 29.1148823
 178500     .1785  -337904.24 196785.552 882.317988 195903.234 -534689.79 338786.555 29.4105996
 179000      .179  -322307.42 147467.917 893.463926 146574.454 -469775.34 323200.885 29.7821309
 179500     .1795  -301061.32 95562.6925 913.446039 94649.2464 -396624.01 301974.763 30.4482013
 180000       .18  -275178.38 42423.6727 933.881324 41489.7913 -317602.05 276112.261 31.1293775
 180500     .1805  -245257.12 -10903.715 945.459314 -11849.174  -234353.4 246202.576 31.5153105
 181000      .181  -211668.17 -63550.582 940.075512 -64490.657 -148117.59  212608.25 31.3358504
 181500     .1815  -174397.24 -115009.78 913.106692 -115922.88 -59387.463 175310.347 30.4368897
 182000      .182  -133384.32 -164990.31 874.146135 -165864.45 31605.9822  134258.47 29.1382045
 182500     .1825  -89482.952 -212635.27 839.442179 -213474.71 123152.317 90322.3945  27.981406
 183000      .183  -44224.338 -256613.77 812.317965 -257426.08 212389.428 45036.6559 27.0772655
 183500     .1835  1113.71213 -295807.76 784.425033 -296592.19 296921.476  -329.2871 26.1475011
 184000      .184  45705.4054 -329482.67 748.205875 -330230.88 375188.078   -44957.2 24.9401958
 184500     .1845  89008.3442 -357166.57 697.283538 -357863.85 446174.912 -88311.061 23.2427846
 185000      .185  130914.572 -378833.54 630.439498 -379463.98 509748.111 -130284.13 21.0146499
 185500     .1855  171246.451 -394593.67 559.816998 -395153.49 565840.119 -170686.63 18.6605666
 186000      .186  208999.113 -404035.28 499.582695 -404534.86 613034.391 -208499.53 16.6527565
 186500     .1865  242813.054  -406504.3 450.103009 -406954.41 649317.358 -242362.95 15.0034336
 187000      .187  271756.358   -401684.  403.31973 -402087.32 673440.358 -271353.04  13.443991
 187500     .1875  295378.444  -389644.3 352.854074 -389997.15 685022.744 -295025.59 11.7618025
 188000      .188  313577.991 -370747.85 293.649413  -371041.5  684325.84 -313284.34 9.78831375
 188500     .1885  326687.337 -345782.23  227.23656 -346009.46 672469.562  -326460.1 7.57455201
 189000      .189  334854.517 -315521.75 166.672964 -315688.43 650376.271 -334687.84 5.55576548
 189500     .1895    337515.7 -280230.95 122.955917 -280353.91 617746.655 -337392.74 4.09853055
 190000       .19  334006.741 -240059.61 93.5085957 -240153.11 574066.347 -333913.23 3.11695319
 190500     .1905  324170.605 -195497.62  70.310762 -195567.93 519668.224 -324100.29 2.34369207
 191000      .191  308293.417 -147328.98 47.3983331 -147376.38 455622.395 -308246.02 1.57994444
 191500     .1915  287016.279 -96576.564 20.5084643 -96597.073 383592.843 -286995.77 .683615475
 192000      .192  261313.243 -44553.778 -6.9716137 -44546.807 305867.021 -261320.21 -.23238712
 192500     .1925  231821.908 7645.39529 -22.613313 7668.00861 224176.513 -231844.52 -.75377711
 193000      .193  198552.907 59459.5169 -19.274664 59478.7916  139093.39 -198572.18  -.6424888
 193500     .1935  161556.337  110405.78 -2.1969728 110407.977 51150.5575 -161558.53 -.07323243
 194000      .194   121355.54  159744.96 20.5068399 159724.453  -38389.42 -121335.03 .683561331
 194500     .1945  78802.6157 206585.321 42.9177429 206542.403 -127782.71 -78759.698 1.43059143
 195000      .195  35032.1253 249892.675 61.4384563 249831.237 -214860.55 -34970.687 2.04794854
 195500     .1955  -8677.0644 288526.538 80.7304037 288445.808  -297203.6 8757.79484 2.69101346
 196000      .196  -51554.021 321756.804 111.718265 321645.086 -373310.82 51665.7392 3.72394218
 196500     .1965  -93398.475 349388.496 157.805722  349230.69 -442786.97 93556.2803 5.26019072
 197000      .197  -133920.74 371289.911 211.914801 371077.996 -505210.65 134132.652  7.0638267
 197500     .1975  -172461.45 387160.916 266.169797 386894.746 -559622.36 172727.619 8.87232657
 198000      .198  -208171.74 396654.768 314.963431 396339.804 -604826.51 208486.706  10.498781
 198500     .1985  -240027.42 399347.471 355.806883 398991.664 -639374.89 240383.226 11.8602294
 199000      .199   -267067.4 394854.182 394.542078  394459.64 -661921.58 267461.941 13.1514026
 199500     .1995  -288964.56 383294.679 440.463881 382854.215 -672259.23  289405.02 14.6821294
 200000       0.2  -305886.12  365245.86  494.07762 364751.782 -671131.98 306380.193  16.469254
 200500     .2005  -317880.25 341283.769 547.704653 340736.064 -659164.02 318427.953 18.2568218
 201000      .201  -324721.77 311839.111  594.40852 311244.703 -636560.88 325316.182 19.8136173
 201500     .2015   -326086.7 277307.212 629.587456 276677.625 -603393.91 326716.283 20.9862485
 202000      .202  -321551.82 237994.837 652.573063 237342.264 -559546.65  322204.39 21.7524354
 202500     .2025  -310904.79 194304.405 670.502972 193633.902 -505209.19 311575.291 22.3500991
 203000      .203  -294586.36 147109.805 691.299256 146418.506 -441696.16 295277.657 23.0433085
 203500     .2035  -273390.71 97573.6005 713.663277 96859.9372 -370964.31 274104.376 23.7887759
 204000      .204  -247926.25 46732.0654 730.464731 46001.6006 -294658.32 248656.715 24.3488244
 204500     .2045  -218562.09 -4572.3582 736.311118 -5308.6694 -213989.73 219298.398 24.5437039
 205000      .205  -185571.52 -55605.536 728.188286 -56333.725 -129965.99 186299.713 24.2729429
 205500     .2055  -149141.15 -105788.72 707.669941 -106496.39  -43352.43 149848.816  23.588998
 206000      .206  -109722.73  -154459.3 683.033831 -155142.34 44736.5748 110405.761 22.7677944
 206500     .2065  -68324.877  -200600.3 660.939658 -201261.24 132275.421 68985.8165 22.0313219
 207000      .207  -26108.974 -243108.74 639.058867  -243747.8 216999.769 26748.0331 21.3019622
 207500     .2075  16054.4785 -281141.43 611.363985 -281752.79 297195.909 -15443.115 20.3787995
 208000      .208   57557.979 -314112.59 574.078599 -314686.67 371670.573   -56983.9 19.1359533
 208500     .2085  97949.6337  -341630.7 525.827851 -342156.53 439580.336 -97423.806  17.527595
 209000      .209  136889.118 -363510.28 470.190475 -363980.47 500399.395 -136418.93 15.6730158
 209500     .2095  173779.983 -379493.27 415.890485 -379909.16 553273.249 -173364.09 13.8630162
 210000       .21   207626.39 -389082.69 368.017701 -389450.71 596709.081 -207258.37 12.2672567
 210500     .2105  237482.093 -391847.99 323.420296 -392171.41 629330.079 -237158.67 10.7806765
 211000      .211  262782.991 -387684.08 277.024197  -387961.1 650467.071 -262505.97 9.23413989
 211500     .2115  283254.916 -376750.43 226.168151  -376976.6  660005.35 -283028.75 7.53893835
 212000      .212  298832.465 -359422.56 170.630023 -359593.19 658255.021 -298661.84 5.68766745
  % % % % % %   Suspended simulation;  plot data space exhausted;  SPY SPACE is required.   LIMBUF =  340000.
  % % % % % %   Suspended simulation;  plot data space exhausted;  SPY SPACE is required.   LIMBUF =  340000.
  +++  Time-sharing disabled.   Send  user-keyed interrupt to silence alarm.
   Current values.  INDBUF  INDBEG  LIMBUF  MFLUSH  NUMDCD  KCARD1  KCARD2
                    339994      50  340000    1004      46       1      50
Plot timespan now in memory (in sec) = 1.69967994E-01   2.12461000E-01
   ++++  Begin plot-data copy from memory to disk.   MFLUSH, INDBUF, N4, Tbeg,  Tend = 1005  339994       1  -1.00000E+00
1.00000E+19
 212500     .2125  309561.611 -336250.67 115.178481 -336365.85 645812.279 -309446.43 3.83928272
 213000      .213  315240.837 -307664.86 67.9220621 -307732.78 622905.698 -315172.91 2.26406874
 213500     .2135  315408.588 -273905.25 31.8337442 -273937.08 589313.839 -315376.75 1.06112481
 214000      .214  309786.315 -235328.44 2.79021185 -235331.23 545114.753 -309783.52 .093007062
 214500     .2145  298494.971 -192577.45 -23.846053  -192553.6  491072.42 -298518.82 -.79486845
 215000      .215  281918.642 -146482.51 -50.324188 -146432.19 428401.153 -281968.97 -1.6774729
 215500     .2155  260635.891 -98022.558 -76.348657  -97946.21 358658.449 -260712.24 -2.5449552
 216000      .216  235265.458 -48230.617 -96.883877 -48133.733 283496.075 -235362.34 -3.2294626
 216500     .2165  206143.055 2086.00166 -105.37021 2191.37186 204057.054 -206248.43 -3.5123402
 217000      .217  173416.964 52326.8314 -101.27496 52428.1064 121090.132 -173518.24 -3.3758321
 217500     .2175  137451.816 101809.572 -89.728192 101899.301 35642.2438 -137541.54 -2.9909397
 218000      .218  98938.5035 149676.727 -75.281197 149752.008 -50738.224 -99013.785 -2.5093732
 218500     .2185  58738.9598 195006.056 -60.162129 195066.218  -136267.1 -58799.122 -2.0054043
 219000      .219  17821.0762 236839.099 -43.862807 236882.961 -219018.02 -17864.939 -1.4620936
 219500     .2195  -22939.355 274314.221 -21.613063 274335.834 -297253.58 22917.7418 -.72043543
 220000       .22  -63017.824 306898.617  11.240096 306887.377 -369916.44  63029.064 .374669868
 220500     .2205  -102058.87 334289.299 53.0539751 334236.245 -436348.17 102111.924 1.76846584
 221000      .221  -139526.79 356149.507 98.1054003 356051.402  -495676.3 139624.898 3.27018001
 221500     .2215  -174680.39 372071.549 142.074264 371929.475 -546751.94 174822.462  4.7358088
 222000      .222   -206720.9 381673.822 182.929453 381490.893 -588394.72  206903.83 6.09764845
 222500     .2225  -234856.44 384619.536 221.600113 384397.936 -619475.97 235078.039 7.38667045
 223000      .223  -258519.78 380767.976 262.609835 380505.366 -639287.75 258782.387 8.75366117
 223500     .2235  -277540.05 370335.206 308.993231 370026.213 -647875.25 277849.039 10.2997744
 224000      .224  -291894.97 353729.357 357.752924 353371.604 -645624.33 292252.724 11.9250975
 224500     .2245  -301420.36 331317.441 403.368323 330914.073  -632737.8 301823.724 13.4456108
 225000      .225  -305842.89 303426.201 442.285091 302983.916 -609269.09  306285.17 14.7428364
 225500     .2255  -304902.22 270413.018 473.228098  269939.79 -575315.23 305375.444 15.7742699
 226000      .226  -298416.25 232681.075 498.030095 232183.044 -531097.32 298914.276 16.6010032
 226500     .2265  -286493.99 190833.078 521.272658 190311.805 -477327.06  287015.26 17.3757553
 227000      .227  -269609.49 145754.307 544.960516 145209.346  -415363.8 270154.453 18.1653505
 227500     .2275  -248313.14  98405.783 565.699836 97840.0831 -346718.92 248878.836 18.8566612
 228000      .228   -223002.2  49631.153 578.937741 49052.2153 -272633.36 223581.141 19.2979247
 228500     .2285  -193989.61 185.559473 582.379978 -396.82051 -194175.17 194571.987 19.4126659
 229000      .229  -161595.34 -49216.939 575.978696 -49792.918  -112378.4 162171.315 19.1992899
 229500     .2295  -126217.61 -97878.673 562.757476  -98441.43 -28338.936 126780.367 18.7585825
 230000       .23  -88523.644 -144969.81  547.48404 -145517.29 56446.1643 89071.1277  18.249468
 230500     .2305  -49432.838 -189512.75 531.531193 -190044.28 140079.908 49964.3688 17.7177064
 231000      .231  -9816.4471 -230601.37 511.708371 -231113.07 220784.918 10328.1555 17.0569457
 231500     .2315  29665.8491  -267541.6 484.730386 -268026.33 297207.448 -29181.119 16.1576795
 232000      .232   68474.686 -299797.83 449.610872 -300247.44 368272.519 -68025.075 14.9870291
 232500     .2325  106121.674 -326956.44 407.520807 -327363.96 433078.112 -105714.15 13.5840269
 233000      .233  142083.977 -348677.68 362.436367 -349040.11 490761.654 -141721.54 12.0812122
 233500     .2335  175643.739  -364555.7 318.980682 -364874.68 540199.435 -175324.76 10.6326894
 234000      .234  205975.088  -374152.1 277.839125 -374429.94 580127.185 -205697.25 9.26130418
 234500     .2345  232426.031 -377200.45 236.053298 -377436.51 609626.484 -232189.98 7.86844327
 235000      .235  254611.187 -373686.49 191.321272 -373877.81 628297.676 -254419.87 6.37737574
 235500     .2355  272304.921 -363773.25   143.5025 -363916.76 636078.174 -272161.42 4.78341667
 236000      .236  285379.705 -347763.35 94.4803164 -347857.83 633143.056 -285285.22 3.14934388
 236500     .2365  293700.322 -326021.67 48.4848262 -326070.16 619721.997 -293651.84 1.61616087
 237000      .237  296996.982  -298849.9 9.32170625 -298859.22 595846.881 -296987.66 .310723542
 237500     .2375  294997.937 -266553.46 -23.375427 -266530.08 561551.394 -295021.31 -.77918089
 238000      .238  287669.874 -229615.29  -52.66679 -229562.62 517285.161 -287722.54 -1.7555597
 238500     .2385  275241.828 -188719.37 -80.454519 -188638.92 463961.199 -275322.28 -2.6818173
 239000      .239  258089.338  -144664.2 -106.68237 -144557.51 402753.534 -258196.02 -3.5560791
 239500     .2395  236669.733 -98319.609 -129.40541 -98190.203 334989.342 -236799.14 -4.3135137
 240000       .24  211398.521 -50527.568  -144.8921 -50382.676 261926.089 -211543.41 -4.8297367
 240500     .2405  182560.894 -2002.9318 -150.74861 -1852.1832 184563.826 -182711.64 -5.0249536
 241000      .241   150470.48 46573.9081  -148.6508 46722.5589 103896.572 -150619.13 -4.9550268
 241500     .2415  115657.851 94416.5635 -142.01098 94558.5745 21241.2873 -115799.86 -4.7336994
 242000      .242  78838.3069 140650.149 -132.74458 140782.893 -61811.842 -78971.051 -4.4248193
 242500     .2425  40797.3739 184394.298 -120.98001 184515.278 -143596.92 -40918.354 -4.0326671
 243000      .243  2321.19924 224807.282 -105.06304 224912.345 -222486.08 -2426.2623 -3.5021014
 243500     .2435   -35931.93 261190.213 -82.128976 261272.342 -297122.14 35849.8009 -2.7376325
 244000      .244  -73474.197 293045.944 -51.315596  293097.26 -366520.14 73422.8818 -1.7105199
 244500     .2445  -109814.62 319963.055 -15.414262 319978.469 -429777.68 109799.209 -.51380873
 245000      .245  -144320.47 341503.053 21.9748885 341481.078 -485823.53  144342.45 .732496282
 245500     .2455  -176284.61 357238.539 58.9787931  357179.56 -533523.15 176343.592 1.96595977
 246000      .246  -205026.19 366818.581 95.4072657 366723.174 -571844.77 205121.599 3.18024219
 246500     .2465  -229959.85 370007.298 132.760525 369874.537 -599967.14 230092.607 4.42535083
 247000      .247  -250710.87 366775.414 173.195093 366602.219 -617486.29  250884.07 5.77316975
 247500     .2475   -267105.7 357310.618 216.463639 357094.155 -624416.32 267322.164 7.21545465
 248000      .248  -278990.08 341882.405 259.303517 341623.102 -620872.49 279249.383 8.64345057
 248500     .2485  -286132.56  320752.04 298.470401  320453.57  -606884.6 286431.034 9.94901338
 249000      .249  -288305.56 294216.084 332.571547 293883.512 -582521.65 288638.134 11.0857182
 249500     .2495   -285363.6 262648.961 361.827384 262287.133 -548012.56 285725.423 12.0609128
 250000       .25  -277306.28 226534.839 388.012093 226146.827 -503841.12 277694.293 12.9337364
 250500     .2505  -264365.46 186537.207 413.015075 186124.192 -450902.67 264778.476 13.7671692
 251000      .251  -246944.79 143464.404 436.135548 143028.269 -390409.19 247380.925 14.5378516
 251500     .2515  -225438.37 98126.9581 454.384973 97672.5731 -323565.33 225892.754 15.1461658
 252000      .252  -200170.09 51271.9111 465.437529 50806.4736   -251442.  200635.53 15.5145843
 252500     .2525  -171474.68 3626.94445 468.814465 3158.12999 -175101.62 171943.492 15.6271488
 253000      .253  -139753.82 -44073.392  465.55168 -44538.944 -95680.426 140219.369 15.5183893
 253500     .2535  -105532.38 -91056.129  457.99731 -91514.127 -14476.252 105990.379  15.266577
 254000      .254  -69512.399 -136460.96 448.069356 -136909.02 66948.5561 69960.4686 14.9356452
 254500     .2545  -32473.535 -179404.75 435.059604 -179839.81 146931.211 32908.5948 14.5019868
  % % % % % %   Suspended simulation;  plot data space exhausted;  SPY SPACE is required.   LIMBUF =  340000.
  % % % % % %   Suspended simulation;  plot data space exhausted;  SPY SPACE is required.   LIMBUF =  340000.
  +++  Time-sharing disabled.   Send  user-keyed interrupt to silence alarm.
   Current values.  INDBUF  INDBEG  LIMBUF  MFLUSH  NUMDCD  KCARD1  KCARD2
                    339994      50  340000    1005      46       1      50
Plot timespan now in memory (in sec) = 2.12459996E-01   2.54953000E-01
   ++++  Begin plot-data copy from memory to disk.   MFLUSH, INDBUF, N4, Tbeg,  Tend = 1006  339994       1  -1.00000E+00
1.00000E+19
 255000      .255  4894.23489 -219114.01 416.670379 -219530.68 224008.246 -4477.5645 13.8890126
 255500     .2555  42016.4424 -254959.61 391.680069 -255351.29 296976.054 -41624.762 13.0560023
 256000      .256  78356.5875 -286408.65 360.576745 -286769.23 364765.239 -77996.011 12.0192248
 256500     .2565  113372.986 -313001.44 325.195341 -313326.64 426374.431 -113047.79 10.8398447
 257000      .257   146464.58 -334311.23 288.320618 -334599.55 480775.806 -146176.26 9.61068728
 257500     .2575  176945.862 -349909.12 251.774256 -350160.89 526854.979 -176694.09  8.3924752
 258000      .258  204166.636 -359440.61 214.830393 -359655.44 563607.249 -203951.81 7.16101311
 258500     .2585  227649.655 -362731.47 175.783465 -362907.25 590381.124 -227473.87 5.85944884
 259000      .259  247080.316 -359787.01 134.202716 -359921.21 606867.323 -246946.11 4.47342386
 259500     .2595  262229.968 -350736.26 91.1396018  -350827.4 612966.231 -262138.83 3.03798673
 260000       .26   272913.99 -335801.57 48.7672867 -335850.33 608715.556 -272865.22 1.62557622
 260500     .2605  278934.672 -315245.73 9.77099413  -315255.5 594180.405  -278924.9 .325699804
 261000      .261  280077.565 -289346.93 -24.586001 -289322.34 569424.496 -280102.15 -.81953336
 261500     .2615  276233.313 -258474.79 -55.389562  -258419.4 534708.107  -276288.7 -1.8463187
 262000      .262  267494.801 -223162.76 -84.180114 -223078.58 490657.565 -267578.98 -2.8060038
 262500     .2625  254113.179 -184076.29 -111.16725 -183965.12 438189.471 -254224.35  -3.705575
 263000      .263  236420.447 -141951.95 -135.31951 -141816.63 378372.393 -236555.77 -4.5106503
 263500     .2635  214782.081  -97558.33 -154.71577 -97403.614  312340.41  -214936.8 -5.1571922
 264000      .264  189537.895 -51636.917  -167.3545 -51469.562 241174.812 -189705.25 -5.5784834
 264500     .2645  161015.808 -4890.0768 -172.96406 -4717.1127 165905.885 -161188.77 -5.7654688
 265000      .265  129645.151  41945.578 -173.28601  42118.864 87699.5733 -129818.44 -5.7762002
 265500     .2655  96012.6389 88055.7601 -170.04505 88225.8052 7956.87875 -96182.684 -5.6681683
 266000      .266  60794.6967 132597.796 -163.63879 132761.435   -71803.1 -60958.335 -5.4546264
 266500     .2665  24683.3843 174756.983 -153.41179 174910.395  -150073.6 -24836.796 -5.1137263
 267000      .267  -11664.346 213786.733 -138.01193 213924.745 -225451.08 11526.3341 -4.6003977
 267500     .2675  -47679.327 249060.688 -116.36411 249177.052 -296740.01 47562.9627 -3.8788035
 268000      .268  -82847.479 280063.618 -89.235654 280152.853  -362911.1 82758.2429 -2.9745218
 268500     .2685  -116606.78 306316.867 -58.944627 306375.811 -422923.64 116547.831 -1.9648209
 269000      .269  -148323.74  327352.74 -27.363193 327380.103 -475676.48 148296.378 -.91210642
 269500     .2695  -177369.29 342764.785 4.94691477 342759.838 -520134.08 177374.241 .164897159
 270000       .27  -203181.39 352249.283 38.3597278 352210.923 -555430.67 203219.751 1.27865759
 270500     .2705  -225311.03 355636.944 73.7964381 355563.148 -580947.98 225384.829 2.45988127
 271000      .271  -243456.87 352925.555 111.636757 352813.918 -596382.43 243568.509 3.72122523
 271500     .2715  -257410.29 344244.711 150.483624 344094.227   -601655. 257560.777  5.0161208
 272000      .272  -266960.45 329777.648 187.918547 329589.729  -596738.1 267148.373 6.26395158
 272500     .2725  -271891.31 309744.595 222.326637 309522.268  -581635.9 272113.633  7.4108879
 273000      .273  -272051.34 284443.452 253.367764 284190.084 -556494.79 272304.711 8.44559214
 273500     .2735  -267398.58 254272.947 281.553952 253991.393 -521671.53 267680.132 9.38513174
 274000      .274  -258034.59 219752.292 307.799537 219444.492 -477786.89 258342.393 10.2599846
 274500     .2745  -244213.64 181530.603 332.277024 181198.326 -425744.25 244545.922 11.0759008
 275000      .275  -226266.67 140329.434 353.559317 139975.875 -366596.11 226620.231 11.7853106
 275500     .2755  -204514.87 96865.9545 369.704278 96496.2502 -301380.82 204884.572 12.3234759
 276000      .276  -179279.32 51844.3567 379.809333 51464.5474 -231123.67 179659.127 12.6603111
 276500     .2765  -150938.06 5986.82914 384.157005 5602.67214 -156924.89 151322.214 12.8052335
 277000      .277  -119954.26 -39955.316 383.773232  -40339.09 -79998.945 120338.034 12.7924411
 277500     .2775  -86897.474 -85189.128  379.89779 -85569.026 -1708.3452 87277.3714 12.6632597
 278000      .278  -52428.668 -128887.43 372.852512 -129260.28 76458.7622 52801.5201 12.4284171
 278500     .2785  -17212.002 -170255.77 361.574941 -170617.35 153043.769 17573.5771  12.052498
 279000      .279   18156.899 -208596.48  344.89605 -208941.38 226753.378 -17812.003  11.496535
 279500     .2795  53129.7058 -243303.59 322.770178 -243626.36 296433.295 -52806.936 10.7590059
 280000       .28  87158.5034 -273834.06 296.172403 -274130.23 360992.561 -86862.331 9.87241345
 280500     .2805  119676.441 -299696.93 266.653059 -299963.58 419373.372 -119409.79 8.88843532
 281000      .281  150083.867 -320439.07   235.7287  -320674.8 470522.936 -149848.14 7.85762334
 281500     .2815  177778.403 -335658.56 203.835522 -335862.39 513436.961 -177574.57 6.79451741
 282000      .282  202241.622 -345066.46 170.241114 -345236.71 547308.087 -202071.38 5.67470381
 282500     .2825  223087.119  -348527.2 134.393538 -348661.59 571614.319 -222952.72  4.4797846
 283000      .283  240024.878 -346034.69 96.8153764 -346131.51 586059.572 -239928.06 3.22717921
 283500     .2835  252817.708 -337678.58  58.832639 -337737.41 590496.288 -252758.88 1.96108797
 284000      .284  261261.114 -323624.93 22.1342401 -323647.07 584886.045 -261238.98 .737808002
 284500     .2845  265170.291 -304095.13 -11.896761 -304083.23 569265.417 -265182.19 -.39655869
 285000      .285  264415.311 -279378.33 -43.074743 -279335.26 543793.645 -264458.39 -1.4358248
 285500     .2855  258994.241 -249879.67 -72.158042 -249807.52 508873.916  -259066.4 -2.4052681
 286000      .286  249052.223 -216134.02 -99.528906 -216034.49 465186.242 -249151.75 -3.3176302
 286500     .2865  234831.142 -178765.56 -124.61305 -178640.95 413596.704 -234955.76 -4.1537685
 287000      .287  216625.106 -138448.95 -146.24724  -138302.7 355074.057 -216771.35 -4.8749081
 287500     .2875   194755.06 -95881.895 -163.11074 -95718.785 290636.955 -194918.17 -5.4370248
 288000      .288  169555.079 -51760.774 -174.42111 -51586.353 221315.853  -169729.5  -5.814037
 288500     .2885  141407.893 -6793.6696 -180.61523 -6613.0544 148201.562 -141588.51 -6.0205078
 289000      .289  110800.015 38263.5818 -182.81148 38446.3932 72536.4337 -110982.83 -6.0937158
 289500     .2895  78314.7715 82612.9001 -181.59759 82794.4977 -4298.1286 -78496.369 -6.0532529
 290000       .29  44573.3675 125460.575 -176.72227 125637.297 -80887.208  -44750.09 -5.8907424
 290500     .2905  10191.7728  166053.57 -167.50423 166221.075  -155861.8 -10359.277 -5.5834742
 291000      .291  -24246.434 203706.447 -153.25619 203859.703 -227952.88 24093.1778 -5.1085398
 291500     .2915  -58199.275 237818.827 -133.97119 237952.798  -296018.1 58065.3043 -4.4657063
 292000      .292  -91128.509 267854.499 -110.76151  267965.26 -358983.01 91017.7477 -3.6920504
 292500     .2925  -122458.88 293309.817  -85.11155 293394.929  -415768.7 122373.773 -2.8370517
 293000      .293  -151600.97 313726.161 -57.833465 313783.994 -465327.13 151543.135 -1.9277822
 293500     .2935  -178007.75 328729.785 -28.982698 328758.768 -506737.54  177978.77 -.96608995
 294000      .294  -201209.37 338056.234 1.72510171 338054.509  -539265.6 201211.093  .05750339
 294500     .2945  -220833.71 341566.895 34.4907383 341532.404  -562400.6 220868.198 1.14969128
 295000      .295  -236603.08 339250.182 68.7883292 339181.393 -575853.27 236671.872 2.29294431
 295500     .2955  -248289.39 331187.114 103.172649 331083.941 -579476.51 248392.565 3.43908829
 296000      .296  -255681.18 317518.182  136.15002 317382.032 -573199.36 255817.329 4.53833399
 296500     .2965  -258610.86 298453.634 167.014112 298286.619 -557064.49  258777.87 5.56713708
 297000      .297  -256999.32 274299.181 195.753576 274103.428  -531298.5 257195.074 6.52511921
  % % % % % %   Suspended simulation;  plot data space exhausted;  SPY SPACE is required.   LIMBUF =  340000.
  % % % % % %   Suspended simulation;  plot data space exhausted;  SPY SPACE is required.   LIMBUF =  340000.
  +++  Time-sharing disabled.   Send  user-keyed interrupt to silence alarm.
   Current values.  INDBUF  INDBEG  LIMBUF  MFLUSH  NUMDCD  KCARD1  KCARD2
                    339994      50  340000    1006      46       1      50
Plot timespan now in memory (in sec) = 2.54952013E-01   2.97445000E-01
   ++++  Begin plot-data copy from memory to disk.   MFLUSH, INDBUF, N4, Tbeg,  Tend = 1007  339994       1  -1.00000E+00
1.00000E+19
 297500     .2975  -250876.58 245465.038 222.642293 245242.396 -496341.61 251099.217 7.42140976
 298000      .298   -240389.4  212468.55 247.809374  212220.74 -452857.95 240637.206 8.26031246
 298500     .2985  -225781.07 175917.676 270.667942 175647.008 -401698.75 226051.739 9.02226472
 299000      .299  -207338.57 136465.242  289.95019 136175.291 -343803.81 207628.517 9.66500632
 299500     .2995  -185364.32 94775.8483 304.617256 94471.2311 -280140.17 185668.937 10.1539085
 300000       0.3  -160201.63 51533.4692 314.466947 51219.0023  -211735.1 160516.094 10.4822316
 300500     .3005  -132264.55 7455.36046 319.909426 7135.45103 -139719.91 132584.463 10.6636475
 301000      .301  -102045.16 -36708.817 321.569257 -37030.386 -65336.347 102366.733 10.7189752
 301500     .3015  -70108.617 -80183.013 319.847424 -80502.861 10074.3966 70428.4641 10.6615808
 302000      .302  -37059.281 -122191.31 314.447778 -122505.76 85132.0324 37373.7292 10.4815926
 302500     .3025  -3485.7195 -162004.85 304.607136 -162309.46 158519.134 3790.32667 10.1535712
 303000      .303  30059.6984 -198966.46 289.971928 -199256.43 229026.158 -29769.727 9.66573095
 303500     .3035  63035.9646  -232479.2 270.981554 -232750.18 295515.166 -62764.983 9.03271845
 304000      .304  94893.2164 -261995.11 248.555905 -262243.66 356888.322 -94644.661 8.28519685
 304500     .3045  125071.786 -287015.42  223.71185 -287239.13 412087.207 -124848.07 7.45706167
 305000      .305  153013.018 -307095.64  197.12677 -307292.77 460108.663 -152815.89 6.57089232
 305500     .3055  178197.529 -321870.79 168.786345 -322039.57 500068.315 -178028.74  5.6262115
 306000      .306  200192.342  -331091.6 138.371125 -331229.97 531283.939 -200053.97 4.61237082
 306500     .3065   218656.98 -334632.15 106.047522  -334738.2 553289.132 -218550.93 3.53491741
 307000      .307  233314.148 -332467.91 72.6514982 -332540.56 565782.059  -233241.5 2.42171661
 307500     .3075  243931.072 -324658.82 39.3299336 -324698.15 568589.892 -243891.74 1.31099779
 308000      .308   250316.44 -311341.18 7.17647973 -311348.35 561657.616 -250309.26 .239215991
 308500     .3085  252329.611 -292725.47 -23.183793 -292702.29 545055.084  -252352.8  -.7727931
 309000      .309  249914.136 -269113.53  -51.80618 -269061.72 519027.666 -249965.94 -1.7268727
 309500     .3095  243128.937 -240918.31 -78.923922 -240839.39  484047.25 -243207.86 -2.6307974
 310000       .31  232136.427 -208652.76 -104.27516 -208548.48 440789.186  -232240.7 -3.4758387
 310500     .3105  217166.087  -172897.5 -127.08085 -172770.42  390063.59 -217293.17 -4.2360284
 311000      .311  198492.718 -134277.55 -146.41331 -134131.13 332770.266 -198639.13 -4.8804438
 311500     .3115  176427.752 -93446.458 -161.53486 -93284.923  269874.21 -176589.29 -5.3844954
 312000      .312  151324.326 -51079.159 -172.26845 -50906.891 202403.485 -151496.59 -5.7422815
 312500     .3125  123602.826 -7882.7556 -179.06002 -7703.6955 131485.582 -123781.89 -5.9686674
 313000      .313  93765.1518 35396.3978 -182.40307 35578.8009  58368.754 -93947.555 -6.0801023
 313500     .3135  62368.2103 77995.2658 -182.30057 78177.5664 -15627.056 -62550.511 -6.0766856
 314000      .314  29984.0486 119168.662 -178.36344 119347.026 -89184.614 -30162.412 -5.9454478
 314500     .3145  -2822.7413 158211.912 -170.16373 158382.075 -161034.65 2652.57756 -5.6721244
 315000      .315  -35505.623 194475.959 -157.54414 194633.503 -229981.58 35348.0792 -5.2514714
 315500     .3155  -67531.046 227370.915 -140.92392 227511.839 -294901.96 67390.1223 -4.6974638
 316000      .316  -98357.272 256353.635 -121.21782 256474.853 -354710.91 98236.0538 -4.0405942
 316500     .3165   -127430.9  280924.02 -99.233258 281023.254 -408354.92 127331.665 -3.3077753
 317000      .317   -154218.7 300647.315 -75.274781  300722.59 -454866.01 154143.424 -2.5091594
 317500     .3175  -178242.62 315180.158 -49.327397 315229.486 -493422.77 178193.288 -1.6442466
 318000      .318  -199096.35 324283.466  -21.38262 324304.848 -523379.82 199074.972   -.712754
 318500     .3185  -216450.21 327827.501 8.28040304 327819.221 -544277.71 216458.494 .276013435
 319000      .319  -230039.04 325783.531 38.8651285 325744.666 -555822.57 230077.904 1.29550428
 319500     .3195   -239639.3 318203.108 69.2608433 318133.848 -557842.41 239708.561 2.30869478
 320000       .32  -245068.31 305210.344 98.6268673 305111.717 -550278.65 245166.933 3.28756224
 320500     .3205   -246211.8 287015.854 126.644609  286889.21 -533227.65  246338.44 4.22148696
 321000      .321  -243046.81 263928.604 153.276988 263775.327 -506975.41 243200.085 5.10923294
 321500     .3215   -235646.8  236355.33 178.470348  236176.86 -472002.13 235825.273 5.94901162
 322000      .322  -224175.33 204792.549  201.89847  204590.65 -428967.88  224377.23 6.72994902
 322500     .3225  -208863.38 169805.324 222.812479 169582.512  -378668.7  209086.19 7.42708264
 323000      .323  -189982.14 131998.969   240.3349 131758.634 -321981.11 190222.472 8.01116334
 323500     .3235  -167840.95  92007.558 253.984484 91753.5735 -259848.51 168094.938 8.46614945
 324000      .324  -142806.69 50500.0849 263.791905  50236.293 -193306.78 143070.487 8.79306349
 324500     .3245  -115313.54  8181.3351 270.023511 7911.31159 -123494.88 115583.566 9.00078371
 325000      .325  -85857.305 -34217.254 272.907712 -34490.161 -51640.052  86130.213 9.09692375
 325500     .3255  -54979.264 -75953.052 272.403195 -76225.456  20973.788 55251.6676 9.08010651
 326000      .326  -23236.175 -116298.92 268.127921 -116567.05 93062.7495 23504.3031 8.93759735
 326500     .3265  8827.30765 -154570.81 259.710558 -154830.52 163398.116 -8567.5971 8.65701862
 327000      .327  40679.3777 -190135.62 247.227437 -190382.84 230814.994  -40432.15 8.24091457
 327500     .3275  71786.7342 -222405.35 231.198747 -222636.55 294192.085 -71555.535 7.70662491
 328000      .328   101612.01 -250837.74 212.296487 -251050.04 352449.753 -101399.71 7.07654958
 328500     .3285  129623.566 -274944.11 191.093898  -275135.2 404567.676 -129432.47 6.36979659
 329000      .329  155314.389 -294302.46 167.862998 -294470.32 449616.847 -155146.53 5.59543327
 329500     .3295   178231.07 -308579.05 142.581525 -308721.63 486810.123 -178088.49 4.75271751
 330000       .33  197993.816 -317545.29 115.312563  -317660.6 515539.103  -197878.5  3.8437521
[...]
                                   1  5.5801796E-02    2  5.4258744E-02    3  5.4176209E-02    4  1.0357663E-02    5  6.9853327E-01
                                   6  6.9869586E-01    7  6.9958808E-01

                   638837.182 -692155.09 -710502.44  .110377E7 -944729.98 -.113711E7 2396.07175
Times of maxima :     .018028    .713954    .003363    .004532     .00634     .00263    .713671
             Random switching times for simulation number  297  :
                                   1  5.6055230E-02    2  5.4163897E-02    3  5.4929744E-02    4  9.5205641E-03    5  7.0046628E-01
                                   6  6.9931070E-01    7  6.9985771E-01

                   635409.067  -639518.7 -710502.44  .110377E7 -944729.98 -.113711E7 2404.91759
Times of maxima :     .018035    .713959    .003363    .004532     .00634     .00263    .713806
             Random switching times for simulation number  298  :
                                   1  5.4402657E-02    2  5.4726493E-02    3  5.5809066E-02    4  1.1302849E-02    5  6.9999931E-01
                                   6  6.9999918E-01    7  7.0135056E-01

                   630355.931 -650037.94 -710502.44  .110377E7 -944729.98 -.113711E7 2396.10827
Times of maxima :     .018287     .71396    .003363    .004532     .00634     .00263    .713821
             Random switching times for simulation number  299  :
                                   1  5.4359107E-02    2  5.5309833E-02    3  5.5354775E-02    4  9.7516764E-03    5  7.0067447E-01
                                   6  7.0174165E-01    7  7.0054964E-01

                    637068.09 -650263.96 -710502.44  .110377E7 -944729.98 -.113711E7 2341.42997
Times of maxima :     .018051    .713723    .003363    .004532     .00634     .00263    .713759
             Random switching times for simulation number  300  :
                                   1  5.6212631E-02    2  5.5400460E-02    3  5.4330646E-02    4  9.8967378E-03    5  7.0009595E-01
                                   6  7.0031249E-01    7  6.9985806E-01

                   637563.653  -645812.9 -710502.44  .110377E7 -944729.98 -.113711E7 2385.69203
Times of maxima :     .018072     .71396    .003363    .004532     .00634     .00263    .713832

 MAIN20 dumps OVER12 dice seed  SEEDSV =   3.0444871000000000E+09

Statistical output of  node  voltage   0.4287E+06 |              X0003AX0003BX0003C

1 ) -------------------------------------------------------------------------------------------------------------------------------
Statistical distribution of peak voltage at node  "X0003A".   The base voltage for per unit printout is  V-base = 4.28660705E+05
  Interval             voltage         voltage  in     Frequency    Cumulative               Per cent
    number         in per unit      physical units     (density)     frequency     .GE. current value
        28           1.4000000      6.00124987E+05             0             0          100.000000
        29           1.4500000      6.21558022E+05             3             3           99.000000
        30           1.5000000      6.42991058E+05           282           285            5.000000
        31           1.5500000      6.64424093E+05             8           293            2.333333
        32           1.6000000      6.85857128E+05             1           294            2.000000
        33           1.6500000      7.07290163E+05             2           296            1.333333
        34           1.7000000      7.28723199E+05             3           299             .333333
        35           1.7500000      7.50156234E+05             0           299             .333333
        36           1.8000000      7.71589269E+05             1           300             .000000
Summary of preceding table follows:       Grouped data     Ungrouped data
                                 Mean = 1.48016667E+00     1.48794744E+00
                             Variance = 9.51477146E-04     9.08181884E-04
                   Standard deviation = 3.08460232E-02     3.01360562E-02

2 ) -------------------------------------------------------------------------------------------------------------------------------
Statistical distribution of peak voltage at node  "X0003B".   The base voltage for per unit printout is  V-base = 4.28660705E+05
  Interval             voltage         voltage  in     Frequency    Cumulative               Per cent
    number         in per unit      physical units     (density)     frequency     .GE. current value
        28           1.4000000      6.00124987E+05             0             0          100.000000
        29           1.4500000      6.21558022E+05             9             9           97.000000
        30           1.5000000      6.42991058E+05            86            95           68.333333
        31           1.5500000      6.64424093E+05           117           212           29.333333
        32           1.6000000      6.85857128E+05            65           277            7.666667
        33           1.6500000      7.07290163E+05            16           293            2.333333
        34           1.7000000      7.28723199E+05             2           295            1.666667
        35           1.7500000      7.50156234E+05             0           295            1.666667
        36           1.8000000      7.71589269E+05             0           295            1.666667
        37           1.8500000      7.93022304E+05             0           295            1.666667
        38           1.9000000      8.14455340E+05             0           295            1.666667
        39           1.9500000      8.35888375E+05             0           295            1.666667
        40           2.0000000      8.57321410E+05             4           299             .333333
        41           2.0500000      8.78754445E+05             1           300             .000000
Summary of preceding table follows:       Grouped data     Ungrouped data
                                 Mean = 1.53250000E+00     1.53293068E+00
                             Variance = 5.73787625E-03     5.36669154E-03
                   Standard deviation = 7.57487706E-02     7.32577064E-02

3 ) -------------------------------------------------------------------------------------------------------------------------------
  SUMMARY   SUMMARY   SUMMARY   SUMMARY   SUMMARY   SUMMARY   SUMMARY   SUMMARY   SUMMARY   SUMMARY   SUMMARY   SUMMARY   SUMMARY
3 ) -------------------------------------------------------------------------------------------------------------------------------
The following is a distribution of peak overvoltages among all output nodes of the last data card that have the same base voltage.
This distribution is for the maximum of the peaks at all output nodes with  V-base = 4.28660705E+05
  Interval             voltage         voltage  in     Frequency    Cumulative               Per cent
    number         in per unit      physical units     (density)     frequency     .GE. current value
        33           1.6500000      7.07290163E+05             0             0          100.000000
        34           1.7000000      7.28723199E+05           294           294            2.000000
        35           1.7500000      7.50156234E+05             0           294            2.000000
        36           1.8000000      7.71589269E+05             1           295            1.666667
        37           1.8500000      7.93022304E+05             0           295            1.666667
        38           1.9000000      8.14455340E+05             0           295            1.666667
        39           1.9500000      8.35888375E+05             0           295            1.666667
        40           2.0000000      8.57321410E+05             4           299             .333333
        41           2.0500000      8.78754445E+05             1           300             .000000
Summary of preceding table follows:       Grouped data     Ungrouped data
                                 Mean = 1.68050000E+00     1.66330362E+00
                             Variance = 1.61680602E-03     1.66468496E-03
                   Standard deviation = 4.02095265E-02     4.08005510E-02

Statistical output of branch voltage   0.4287E+06 |-1            X0003BX0003CX0003AX0003BX0003CX0003A

4 ) -------------------------------------------------------------------------------------------------------------------------------
Statistical distribution of peak voltage  for branch  "X0003A"  to  "X0003B".   Base voltage  for per unit output = 4.28660705E+05
  Interval             voltage         voltage  in     Frequency    Cumulative               Per cent
    number         in per unit      physical units     (density)     frequency     .GE. current value
        44           2.2000000      9.43053551E+05             0             0          100.000000
        45           2.2500000      9.64486586E+05           291           291            3.000000
        46           2.3000000      9.85919622E+05             0           291            3.000000
        47           2.3500000      1.00735266E+06             0           291            3.000000
        48           2.4000000      1.02878569E+06             0           291            3.000000
        49           2.4500000      1.05021873E+06             0           291            3.000000
        50           2.5000000      1.07165176E+06             0           291            3.000000
        51           2.5500000      1.09308480E+06             3           294            2.000000
        52           2.6000000      1.11451783E+06             4           298             .666667
        53           2.6500000      1.13595087E+06             2           300             .000000
Summary of preceding table follows:       Grouped data     Ungrouped data
                                 Mean = 2.23533333E+00     2.21491713E+00
                             Variance = 3.50490524E-03     3.98440906E-03
                   Standard deviation = 5.92022402E-02     6.31221757E-02

5 ) -------------------------------------------------------------------------------------------------------------------------------
  SUMMARY   SUMMARY   SUMMARY   SUMMARY   SUMMARY   SUMMARY   SUMMARY   SUMMARY   SUMMARY   SUMMARY   SUMMARY   SUMMARY   SUMMARY
5 ) -------------------------------------------------------------------------------------------------------------------------------
A distribution of peak values among all output branches of the last data card that have the same base value follows.  This
statistical distribution is for the maximum of the peaks at all of these output branches having base  voltage  = 4.28660705E+05
  Interval             voltage         voltage  in     Frequency    Cumulative               Per cent
    number         in per unit      physical units     (density)     frequency     .GE. current value
        53           2.6500000      1.13595087E+06             0             0          100.000000
        54           2.7000000      1.15738390E+06           300           300             .000000
Summary of preceding table follows:       Grouped data     Ungrouped data
                                 Mean = 2.67500000E+00     2.65271207E+00
                             Variance = 1.52089415E-15     2.93557919E-14
                   Standard deviation = 3.89986429E-08     1.71335320E-07

Blank card ends statistical tabulation requests.  |BLANK STATISTICS

                                      Sample curve symbols : "A", "B", and "C"
                                      Theoretical curve symbol : "*"
                                      Common curve symbol : "X"

        Switch  "X0001B"  to  "X0002B"            Switch  "X0001A"  to  "X0002A"            Switch  "X0001C"  to  "X0002C"
1.32420000E+00   switchings per column          1.32420000E+00   switchings per column     1.32420000E+00   switchings per column
              Columns                                     Columns                                     Columns
          5   10   15   20   25   30                5   10   15   20   25   30                5   10   15   20   25   30
     +----+----+----+----+----+----+           +----+----+----+----+----+----+           +----+----+----+----+----+----+
    X                                         X                                         X
    X                                         X                                         X
    X                                         X                                         X
    *A                                        X                                         X
    |*A                                       B*                                        |*C
    |A*                                       | X                                       | X
    |   X                                     | B *                                     |   *  C
    |       X                                 |       X                                 |     C *
    |      A    *                             |           *B                            |       C   *
    |                 * A                     |                 *    B                  |                 *  C
    |                       *     A           |                       X                 |                       *    C
    |                      A    *             |                           *   B         |                    C      *
    |  5.5000E-02                 *     A     |  5.5000E-02              B  *           |  5.5000E-02                 *     C
    |                           *      A      |                         B *             |                         C *
    |                  A    *                 |                       * B               |                       *     C
    |               A *                       |                B*                       |            C    *
    |         A *                             |          B*                             |        C  *
    |       * A                               |       X                                 |       *  C
    |  A*                                     |   X                                     | C *
    | *A                                      | X                                       | X
    |X                                        |X                                        |*C
    X                                         *B                                        X
    X                                         X                                         X
    X                                         X                                         *C
    X                                         X                                         X
   Time (scale = 3.33333333E-04  Sec/line)   Time (scale = 3.33333333E-04  Sec/line)   Time  (scale = 3.33333333E-04  Sec/line)

        Switch  "X0003C"  to  "XX0009"            Switch  "X0001B"  to  "X0002B"            Switch  "X0001A"  to  "X0002A"
1.32420000E+00   switchings per column          1.32420000E+00   switchings per column     1.32420000E+00   switchings per column
              Columns                                     Columns                                     Columns
          5   10   15   20   25   30                5   10   15   20   25   30                5   10   15   20   25   30
     +----+----+----+----+----+----+           +----+----+----+----+----+----+           +----+----+----+----+----+----+
    X                                         X                                         X
    X                                         X                                         X
    X                                         X                                         X
    *A                                        X                                         * C
    |X                                        |X                                        |*C
    | *A                                      | X                                       | X
    |  A*                                     |  B*                                     |   X
    |      A*                                 |    B  *                                 |     C *
    |         A *                             |           *  B                          |          C*
    |                 * A                     |                B*                       |                 X
    |                       *     A           |                       *    B            |                       X
    |                           *    A        |                           *B            |                           * C
    |  1.0000E-02                 *A          |  7.0000E-01                 *   B       |  7.0000E-01                C*
    |                           *   A         |                           *  B          |                           *  C
    |                A      *                 |                   B   *                 |                    C  *
    |                 * A                     |            B    *                       |                 X
    |           X                             |         B *                             |           * C
    |     A *                                 |     B *                                 |       X
    A   *                                     |   *  B                                  |   *C
    A *                                       | X                                       C *
    A*                                        |*B                                       |*C
    *A                                        *B                                        X
    X                                         X                                         X
    X                                         *B                                        X
    X                                         X                                         X
   Time (scale = 3.33333333E-04  Sec/line)   Time (scale = 3.33333333E-04  Sec/line)   Time  (scale = 3.33333333E-04  Sec/line)

   Switch  "X0001C"  to  "X0002C"
     1.32420000E+00   switchings per column
              Columns
          5   10   15   20   25   30
     +----+----+----+----+----+----+
    X
    X
    *A
    X
    |X
    |A*
    | A *
    |       X
    |           *    A
    |          A      *
    |                       *    A
    |                         A *
    |  7.0000E-01                A*
    |                          A*
    |                       X
    |                 *  A
    |           *       A
    |    A  *
    |   X
    A *
    A*
    *A
    X
    *A
    X
   Time (scale = 3.33333333E-04  Sec/line)
 .... Questionable Kolmogorov-Smirnov test result = 4.79983461E-01
 .... Questionable Kolmogorov-Smirnov test result = 8.61125218E-01
 .... Questionable Kolmogorov-Smirnov test result = 6.22920778E-01
 .... Questionable Kolmogorov-Smirnov test result = 8.70941508E-02
 .... Questionable Kolmogorov-Smirnov test result = 7.08509700E-01
 .... Questionable Kolmogorov-Smirnov test result = 9.61921384E-01
 .... Questionable Kolmogorov-Smirnov test result = 7.92096056E-01

Actual List Sizes for the preceding solution follow.       11-Nov-18  11.00.00
   Size  1-10:    27    26    38     3   138    13    42  5298     0     0
   Size 11-20:     0     7 -9999 -9999 -9999     0     0     0    23  3252
   Size 21-30:    36   180 14780     0 -9999     9 -9999 -9999 -9999     0
Seconds for overlays  1-5  :     0.000     0.000     0.000  -- (CP: Wait; Real)
Seconds for overlays  6-11 :     0.000     0.000     0.000
Seconds for overlays 12-15 :     0.000     0.000     0.000
Seconds for time-step loop :     0.000     0.000     0.000
Seconds after DELTAT-loop  :     0.000     0.000     0.000
                               ---------------------------
                   Totals  :     0.000     0.000     0.000

