   ---   46   cards of disk file read into card cache cells  1   onward.
 <===> Done with  "/"-card sorting by data class.    Remember that the source file appears different from interpreted input data.
Alternative Transients Program (ATP),  F77 GNU Linux or DOS.  All rights reserved by Can/Am user group of Portland, Oregon, USA.
 Date (dd-mth-yy) and time of day (hh.mm.ss) = 11-Nov-18  11.00.00    Name of disk plot file, if any, is
Consult the 860-page ATP Rule Book of the Can/Am EMTP User Group in Portland,  Oregon, USA.  Source code date is
Total size of LABCOM tables = 16446853 INTEGER words.  31 VARDIM  List Sizes follow:  6002  10K  192K  900  420K  1200  15K
  120K  2250  3800  720  2K  72800  510  800K  800  90  254  800K  100K  3K  15K  192K  120  45K  260K  600  210K  1100  19  200K
--------------------------------------------------+--------------------------------------------------------------------------------
Descriptive interpretation of input data cards.   |  Input data card images are shown below, all 80 columns, character by character
                                                  0         1         2         3         4         5         6         7         8
                                                  012345678901234567890123456789012345678901234567890123456789012345678901234567890
--------------------------------------------------+--------------------------------------------------------------------------------
Comment card.   KOMPAR > 0.                       |C data:Caso0_ReEnergizacao_OTIMIZADA_SemControle.atp
Marker card preceding new EMTP data case.         |BEGIN NEW DATA CASE
Comment card.   KOMPAR > 0.                       |C $DUMMY, XYZ000
Misc. data.     1.000E-06   1.000E+00   0.000E+00 |   1.E-6      1.
Misc. data.  500  1  0  0  1  0  0  1  300  0     |     500       1       0       0       1       0       0       1     300
Statistics data.      1    1    0    0    1    0  |       1       1       0       0       1      -1                               0
Series R-L-C.   5.000E+00  7.500E-02  0.000E+00   |  X0001AX0007A                5.   75.                                         0
Series R-L-C.   5.000E+00  7.500E-02  0.000E+00   |  X0001BX0007B                5.   75.                                         0
Series R-L-C.   5.000E+00  7.500E-02  0.000E+00   |  X0001CX0007C                5.   75.                                         0
Series R-L-C.   2.000E+02  0.000E+00  0.000E+00   |  X0007AX0001A              200.                                               0
Series R-L-C.   2.000E+02  0.000E+00  0.000E+00   |  X0007BX0001B              200.                                               0
Series R-L-C.   2.000E+02  0.000E+00  0.000E+00   |  X0007CX0001C              200.                                               0
Series R-L-C.   1.321E+00  1.401E+00  0.000E+00   |  X0003BXX0008            1.32071401.3                                         0
Series R-L-C.   1.321E+00  1.401E+00  0.000E+00   |  X0003AXX0008            1.32071401.3                                         0
Series R-L-C.   1.321E+00  1.401E+00  0.000E+00   |  X0003CXX0008            1.32071401.3                                         0
Series R-L-C.   3.900E-01  4.138E-01  0.000E+00   |  XX0008                     .39 413.8                                         0
Series R-L-C.   3.000E+01  0.000E+00  0.000E+00   |  XX0009                     30.                                               0
Dynamic $INCLUDE uses fixed RAM cache to delay.   |$INSERT, C:\SimulacaoATP\EXT1.pch
J. Marti line, mode  1   parameters begin.        |-1X0002AX0005C                2.  0.00              -2 3
J. Marti line, mode  2   parameters begin.        |-2X0002BX0005A                2.  0.00              -2 3
J. Marti line, mode  3   parameters begin.        |-3X0002CX0005B                2.  0.00              -2 3
TR(1,1 )...  0.671-0.707-0.324                    |  0.67102882 -0.70710678 -0.32400803
TI(1,1 )...  0.000 0.000 0.003                    |  0.00000000  0.00000000  0.00341127
TR(2,1 )...  0.315 0.000 0.889                    |  0.31480489  0.00000000  0.88876566
TI(2,1 )... -0.018 0.000 0.010                    | -0.01839933  0.00000000  0.01048452
TR(3,1 )...  0.671 0.707-0.324                    |  0.67102882  0.70710678 -0.32400803
TI(3,1 )...  0.000 0.000 0.003                    |  0.00000000  0.00000000  0.00341127
Dynamic $INCLUDE uses fixed RAM cache to delay.   |$INSERT, C:\SimulacaoATP\OTIM2.pch
J. Marti line, mode  1   parameters begin.        |-1X0004AX0006C                2.  0.00              -2 3
J. Marti line, mode  2   parameters begin.        |-2X0004BX0006A                2.  0.00              -2 3
J. Marti line, mode  3   parameters begin.        |-3X0004CX0006B                2.  0.00              -2 3
TR(1,1 )...  0.671-0.707-0.324                    |  0.67102882 -0.70710678 -0.32400803
TI(1,1 )...  0.000 0.000 0.003                    |  0.00000000  0.00000000  0.00341127
TR(2,1 )...  0.315 0.000 0.889                    |  0.31480489  0.00000000  0.88876566
TI(2,1 )... -0.018 0.000 0.010                    | -0.01839933  0.00000000  0.01048452
TR(3,1 )...  0.671 0.707-0.324                    |  0.67102882  0.70710678 -0.32400803
TI(3,1 )...  0.000 0.000 0.003                    |  0.00000000  0.00000000  0.00341127
Dynamic $INCLUDE uses fixed RAM cache to delay.   |$INSERT, C:\SimulacaoATP\OTIM3.pch
J. Marti line, mode  1   parameters begin.        |-1X0005AX0004C                2.  0.00              -2 3
J. Marti line, mode  2   parameters begin.        |-2X0005BX0004A                2.  0.00              -2 3
J. Marti line, mode  3   parameters begin.        |-3X0005CX0004B                2.  0.00              -2 3
TR(1,1 )...  0.671-0.707-0.324                    |  0.67102882 -0.70710678 -0.32400803
TI(1,1 )...  0.000 0.000 0.003                    |  0.00000000  0.00000000  0.00341127
TR(2,1 )...  0.315 0.000 0.889                    |  0.31480489  0.00000000  0.88876566
TI(2,1 )... -0.018 0.000 0.010                    | -0.01839933  0.00000000  0.01048452
TR(3,1 )...  0.671 0.707-0.324                    |  0.67102882  0.70710678 -0.32400803
TI(3,1 )...  0.000 0.000 0.003                    |  0.00000000  0.00000000  0.00341127
Dynamic $INCLUDE uses fixed RAM cache to delay.   |$INSERT, C:\SimulacaoATP\EXT4.pch
J. Marti line, mode  1   parameters begin.        |-1X0006AX0003A                2.  0.00              -2 3
J. Marti line, mode  2   parameters begin.        |-2X0006BX0003B                2.  0.00              -2 3
J. Marti line, mode  3   parameters begin.        |-3X0006CX0003C                2.  0.00              -2 3
TR(1,1 )...  0.671-0.707-0.324                    |  0.67102882 -0.70710678 -0.32400803
TI(1,1 )...  0.000 0.000 0.003                    |  0.00000000  0.00000000  0.00341127
TR(2,1 )...  0.315 0.000 0.889                    |  0.31480489  0.00000000  0.88876566
TI(2,1 )... -0.018 0.000 0.010                    | -0.01839933  0.00000000  0.01048452
TR(3,1 )...  0.671 0.707-0.324                    |  0.67102882  0.70710678 -0.32400803
TI(3,1 )...  0.000 0.000 0.003                    |  0.00000000  0.00000000  0.00341127
Blank card ending branches.  IBR, NTOT = 23  24   |BLANK BRANCH
Switch.   5.50E-02  1.00E-03  0.00E+00  3.33E+03  |  X0001BX0002B      .055      .001               3333.STATISTICS               0
Switch.   5.50E-02  1.00E-03  0.00E+00  3.33E+03  |  X0001AX0002A      .055      .001               3333.STATISTICS               0
Switch.   5.50E-02  1.00E-03  0.00E+00  3.33E+03  |  X0001CX0002C      .055      .001               3333.STATISTICS               0
Switch.   1.00E-02  1.00E-03  0.00E+00  0.00E+00  |  X0003CXX0009       .01      .001                    STATISTICS               1
Switch.   7.00E-01  1.00E-03  0.00E+00  0.00E+00  |  X0001BX0002B        .7      .001                    STATISTICS               0
Switch.   7.00E-01  1.00E-03  0.00E+00  0.00E+00  |  X0001AX0002A        .7      .001                    STATISTICS               0
Switch.   7.00E-01  1.00E-03  0.00E+00  0.00E+00  |  X0001CX0002C        .7      .001                    STATISTICS               0
Blank card ending switches.   KSWTCH = 7.         |BLANK SWITCH
Source.   4.29E+05  6.00E+01  0.00E+00 -1.00E+00  |14X0007A  428660.705       60.                                     -1.      100.
Source.   4.29E+05  6.00E+01 -1.20E+02 -1.00E+00  |14X0007B  428660.705       60.     -120.                           -1.      100.
Source.   4.29E+05  6.00E+01 -2.40E+02 -1.00E+00  |14X0007C  428660.705       60.     -240.                           -1.      100.
Blank card ends electric sources.  KCONST = 3     |BLANK SOURCE

     Total network loss  P-loss  by summing injections =   4.331165707202E+06

Card of names for time-step loop output.          |  X0003AX0003BX0003C
Output voltage differences for pairs of A6 names  |-5X0003BX0003CX0003AX0003BX0003CX0003A
Blank card ending requests for output variables.  |BLANK OUTPUT

Column headings for the  7   EMTP output variables follow.  These are divided among the 5 possible classes as follows ....
  First  6     output variables are electric-network voltage differences (upper voltage minus lower voltage);
  Next   1     output variables are branch currents (flowing from the upper node to the lower node);
   Step      Time      X0003A     X0003B     X0003C     X0003B     X0003A     X0003C     X0003C
                                                        X0003C     X0003B     X0003A     XX0009
 ***      Phasor I(0) =  7.3173732E+02                     Switch  "X0001B"  to  "X0002B"  closed in the steady-state.
 ***      Phasor I(0) =  6.6532395E+00                     Switch  "X0001A"  to  "X0002A"  closed in the steady-state.
 ***      Phasor I(0) = -7.4461656E+02                     Switch  "X0001C"  to  "X0002C"  closed in the steady-state.
      0       0.0   454775.78 -230831.19 -216380.18 -14451.004 685606.968 -671155.96        0.0
    500     .5E-3   445652.48 -153805.73 -285979.55 132173.817 599458.211 -731632.03        0.0
   1000     .1E-2  423030.382 -71920.891 -344881.43 272960.541 494951.273 -767911.81        0.0
   1500     .0015  385448.976 13176.5389 -391701.39 404877.931 372272.437 -777150.37        0.0
   2000      .002  334960.844 97655.1421 -424137.55 521792.696 237305.702  -759098.4        0.0
   2500     .0025  272304.472 178319.319  -442325.4 620644.721  93985.153 -714629.87        0.0
   3000      .003  200371.651 252290.692 -445355.37 697646.067 -51919.041 -645727.03        0.0
   3500     .0035  121589.493 317676.748 -431999.75 749676.503 -196087.26 -553589.25        0.0
   4000      .004  38612.3783 371732.628 -403592.94  775325.57 -333120.25 -442205.32        0.0
   4500     .0045  -46029.597  412685.78 -361049.64  773735.42 -458715.38 -315020.04        0.0
   5000      .005  -129078.26 439646.777 -305425.65 745072.426 -568725.03 -176347.39        0.0
   5500     .0055  -207780.76 451042.221  -238949.8 689992.025 -658822.98 -31169.047        0.0
   6000      .006  -279569.75 446416.652 -164153.55 610570.207  -725986.4 115416.196        0.0
   6500     .0065  -341879.16 425902.833 -83427.637 509330.471 -767781.99 258451.522        0.0
   7000      .007  -392112.18 390484.166 415.842906 390068.323 -782596.35 392528.023        0.0
   7500     .0075  -428463.87 341297.127 84346.2804 256950.847 -769760.99 512810.148        0.0
   8000      .008  -449796.82 279873.609 165249.693 114623.916 -729670.43  615046.51        0.0
   8500     .0085  -454998.75 208361.981   240333.7 -31971.719 -663360.73 695332.446        0.0
   9000      .009  -443910.36 129314.204 306846.682 -177532.48 -573224.56 750757.039        0.0
   9500     .0095  -416977.61 45467.0892 362361.262 -316894.17  -462444.7 779338.874        0.0
  10000       .01  -375034.62 -40066.304 404934.528 -445000.83 -334968.31 779969.146        0.0
 ***                                                             Close switch  "X0003C"  to  "XX0009"  after  1.00010000E-02  sec.
  10500     .0105  -449270.37  -251836.8 44509.6706 -296346.47 -197433.57 493780.037 1483.65569
  11000      .011  -386956.02 -335922.16 47695.1257 -383617.29 -51033.865  434651.15 1589.83752
  11500     .0115   -307597.9 -408464.63  49580.229 -458044.86 100866.734 357178.128  1652.6743
  12000      .012   -226713.8 -477590.23 52410.6125 -530000.85 250876.434 279124.412 1747.02042
  12500     .0125  -130418.76 -514565.78  52309.124  -566874.9 384147.016 182727.884 1743.63747
  13000      .013  -12407.111 -530623.02 48905.4029 -579528.43 518215.913 61312.5136  1630.1801
  13500     .0135    56309.64 -535136.62 44630.7127 -579767.33 591446.259 -11678.927 1487.69042
  14000      .014   58584.639 -620167.83 53947.9679  -674115.8 678752.469 -4636.6711  1798.2656
  14500     .0145  191984.109 -558930.42 65032.8783  -623963.3 750914.527 -126951.23 2167.76261
  15000      .015  321102.726 -458396.29 71955.3575 -530351.64 779499.012 -249147.37 2398.51192
  15500     .0155  410704.985 -361970.68 70016.9518 -431987.64 772675.668 -340688.03 2333.89839
  16000      .016   477813.93 -268748.07 63200.1524 -331948.22 746562.002 -414613.78 2106.67175
  16500     .0165  530395.553  -167711.5  53741.734 -221453.23 698107.052 -476653.82 1791.39113
  17000      .017  571319.856 -57540.255 40601.5965 -98141.852 628860.111 -530718.26 1353.38655
  17500     .0175  594634.153 53962.8966 23981.4248 29981.4718 540671.256 -570652.73 799.380827
  18000      .018   581737.13 160907.212 10948.6453 149958.566 420829.919 -570788.48 364.954844
  18500     .0185  547273.983 261968.032 4838.51889 257129.513 285305.951 -542435.46 161.283963
  19000      .019  492236.907 345327.553 -1571.5575 346899.111 146909.354 -493808.46  -52.38525
  19500     .0195  423157.081  417760.04 -9350.1499  427110.19 5397.04144 -432507.23 -311.67166
  20000       .02  338395.335 477835.844 -17937.243 495773.087 -139440.51 -356332.58  -597.9081
  20500     .0205  242044.136 523585.029 -26571.732 550156.761 -281540.89 -268615.87 -885.72439
  21000      .021  139047.576 555160.989 -35267.705 590428.694 -416113.41 -174315.28 -1175.5902
  21500     .0215  29044.3014 564688.483 -43961.787 608650.269 -535644.18 -73006.088 -1465.3929
  22000      .022   -89649.09 544245.261 -50507.382 594752.643 -633894.35  39141.708 -1683.5794
  22500     .0225  -202261.51 506686.106 -53484.512 560170.618 -708947.62 148777.001 -1782.8171
  23000      .023  -299330.54 461487.492 -52751.332 514238.824 -760818.04 246579.211 -1758.3777
  23500     .0235  -381028.33 405615.172 -49366.621 454981.793 -786643.51 331661.713  -1645.554
  24000      .024  -448545.84 335321.003 -44169.908 379490.911 -783866.84 404375.934 -1472.3303
  24500     .0245  -500425.16 250920.649 -37553.163 288473.812 -751345.81 462871.998 -1251.7721
  25000      .025   -533435.9 156824.102 -30033.746 186857.847   -690260. 503402.155 -1001.1249
  25500     .0255  -547149.36 57373.6582 -22254.295 79627.9527 -604523.02 524895.065 -741.80982
  26000      .026  -543452.54 -45008.215 -13993.138 -31015.076 -498444.33 529459.402 -466.43794
  26500     .0265  -523068.47 -147856.54 -4556.3364  -143300.2 -375211.93  518512.13 -151.87788
  27000      .027  -486758.29 -248361.86 5977.01855 -254338.88 -238396.43 492735.309 199.233952
  27500     .0275  -434836.01 -341823.99 16945.4807 -358769.47  -93012.02 451781.493 564.849356
  28000      .028  -368144.03 -423244.07 27666.5303  -450910.6 55100.0414 395810.557 922.217676
  28500     .0285  -288432.11 -488501.79 37606.4243 -526108.22 200069.681 326038.538 1253.54748
  29000      .029  -197568.56 -534654.59 46241.9519 -580896.55 337086.029 243810.517  1541.3984
  29500     .0295  -98607.511 -560630.72 53027.8121 -613658.53 462023.207 151635.323 1767.59374
  30000       .03  4030.45092 -566782.62 57691.0541 -624473.68 570813.072 53660.6031 1923.03514
  30500     .0305  106720.677 -552896.92 60283.8467 -613180.77 659617.601 -46436.831 2009.46156
  31000      .031  206925.766 -518318.11 60995.8966   -579314. 725243.873 -145929.87 2033.19655
  31500     .0315  301706.307 -463688.05 59955.6131 -523643.66 765394.357 -241750.69 1998.52044
  32000      .032  387313.381  -391552.9 57195.3082 -448748.21 778866.283 -330118.07 1906.51027
  32500     .0325  459918.529 -305456.17 52743.4858 -358199.66 765374.702 -407175.04 1758.11619
  33000      .033  516452.124 -208887.76 46644.4206 -255532.18 725339.881  -469807.7 1554.81402
  33500     .0335  554669.759  -105259.9 38948.4429 -144208.34 659929.656 -515721.32 1298.28143
  34000      .034  572875.829 1695.39587 29820.4125 -28125.017 571180.433 -543055.42 994.013749
  34500     .0345  569945.396 107937.318 19619.2982 88318.0197 462008.078  -550326.1 653.976606
  35000      .035  545568.977 209410.153  8814.9898 200595.163 336158.824 -536753.99 293.832993
  35500     .0355  500547.586 302514.071 -2130.8933 304644.964 198033.515 -502678.48 -71.029777
  36000      .036  436786.063 384330.534 -12802.203 397132.737 52455.5291 -449588.27 -426.74009
  36500     .0365  357059.444 452512.845 -22816.766 475329.612 -95453.401 -379876.21 -760.55887
  37000      .037  264775.364 505151.778 -31835.218 536986.996 -240376.41 -296610.58 -1061.1739
  37500     .0375  163644.169 540655.688 -39588.628 580244.316 -377011.52  -203232.8 -1319.6209
  38000      .038  57420.1582 557735.738 -45869.809 603605.547 -500315.58 -103289.97 -1528.9936
  38500     .0385  -50091.525 555633.492 -50497.673 606131.165 -605725.02 -406.14836 -1683.2558
  39000      .039  -155005.22 534361.781 -53301.202 587662.983   -689367.  101704.02 -1776.7067
  39500     .0395  -253536.48 494675.686 -54140.022 548815.707 -748212.16 199396.457 -1804.6674
  40000       .04  -342287.34 437880.394 -52939.362 490819.756 -780167.73 289347.976 -1764.6454
  40500     .0405  -418398.55 365741.934 -49710.273 415452.206 -784140.48 368688.274 -1657.0091
  41000      .041  -479514.81 280551.145 -44556.819 325107.965 -760065.95 434957.986 -1485.2273
  41500     .0415  -523741.84 185165.273 -37677.594 222842.867 -708907.11 486064.245 -1255.9198
  42000      .042  -549708.55 82912.3453 -29350.954 112263.299  -632620.9 520357.598 -978.36513
  % % % % % %   Suspended simulation;  plot data space exhausted;  SPY SPACE is required.   LIMBUF =  340000.
  % % % % % %   Suspended simulation;  plot data space exhausted;  SPY SPACE is required.   LIMBUF =  340000.
  +++  Time-sharing disabled.   Send  user-keyed interrupt to silence alarm.
   Current values.  INDBUF  INDBEG  LIMBUF  MFLUSH  NUMDCD  KCARD1  KCARD2
                    339994      50  340000    1000      37       1      41
Plot timespan now in memory (in sec) = 0.00000000E+00   4.24930000E-02
   ++++  Begin plot-data copy from memory to disk.   MFLUSH, INDBUF, N4, Tbeg,  Tend = 1001  339994       1  -1.00000E+00
1.00000E+19
  42500     .0425  -556661.03 -22594.974 -19904.714 -2690.2596 -534066.06 536756.316 -663.49047
  43000      .043  -544492.75 -127634.38 -9689.9888 -117944.39 -416858.37 534802.758 -322.99963
  43500     .0435  -513694.58 -228481.99 930.214705 -229412.21 -285212.59 514624.795 31.0071568
  44000      .044  -465285.83 -321493.05 11586.4334 -333079.48 -143792.78 476872.264 386.214447
  44500     .0445   -400782.7 -403218.62 21911.6716 -425130.29 2435.91604 422694.373 730.389054
  45000      .045  -322195.94 -470564.68 31551.4953 -502116.17 148368.739 353747.433 1051.71651
  45500     .0455  -232029.27 -520966.82 40170.6405 -561137.46 288937.557 272199.908 1339.02135
  46000      .046  -133252.24 -552536.96 47460.0195 -599996.98 419284.726 180712.256 1582.00065
  46500     .0465  -29223.303 -564139.56 53149.6397  -617289.2 534916.262 82372.9429 1771.65466
  47000      .047  76433.6892 -555399.33 57025.6517 -612424.98 631833.019 -19408.038 1900.85506
  47500     .0475    179967.1 -526683.17 58944.4809 -585627.65 706650.271 -121022.62 1964.81603
  48000      .048  277627.353  -479085.1  58839.363 -537924.46 756712.454 -218787.99  1961.3121
  48500     .0485  365801.076 -414396.67 56720.3054 -471116.97 780197.746 -309080.77 1890.67685
  49000      .049  441166.232 -335031.89 52670.0326 -387701.93 776198.125  -388496.2 1755.66775
  49500     .0495  500854.551 -243908.65 46837.1379 -290745.79 744763.201 -454017.41 1561.23793
  50000       .05   542589.69   -144318. 39428.0885 -183746.09 686907.695  -503161.6 1314.26962
  50500     .0505  564783.078 -39805.155 30699.9828 -70505.138 604588.233  -534083.1 1023.33276
  51000      .051  566591.413 65940.5412 20953.9284 44986.6128 500650.872 -545637.48 698.464281
  51500     .0515  547947.056 169202.359 10527.1682 158675.191 378744.697 -537419.89 350.905606
  52000      .052  509562.701 266365.715 -217.08934 266582.804 243196.986 -509779.79 -7.2363112
  52500     .0525  452902.417 354049.124 -10901.572 364950.697 98853.2931 -463803.99 -363.38575
  53000      .053  380114.878 429220.811 -21147.963 450368.774 -49105.934 -401262.84  -704.9321
  53500     .0535  293932.963 489293.107 -30591.036 519884.143 -195360.14   -324524. -1019.7012
  54000      .054  197549.574 532196.954 -38893.432 571090.385 -334647.38 -236443.01 -1296.4477
  54500     .0545  94481.7882 556443.407  -45759.46 602202.867 -461961.62 -140241.25 -1525.3153
  55000      .055  -11566.446 561175.181 -50946.277 612121.457 -572741.63  -39379.83 -1698.2092
  55500     .0555  -116838.21 546203.307 -54271.877 600475.184 -663041.52 62566.3354 -1809.0626
 ***                                                             Open  switch  "X0001B"  to  "X0002B"  after  5.57080000E-02  sec.
  56000      .056  -217652.89 512020.491 -55620.436 567640.927 -729673.38 162032.453 -1854.0145
  56500     .0565  -310528.24 459787.783 -54945.576 514733.359 -770316.02  255582.66 -1831.5192
  57000      .057  -392290.04 391298.242 -52271.731 443569.974 -783588.29 340018.313  -1742.391
  57500     .0575  -463207.52 318275.593 -47958.949 366234.542 -781483.11 415248.567 -1598.6316
  58000      .058  -524467.11 271114.215 -43178.311 314292.527 -795581.33 481288.799  -1439.277
  58500     .0585  -556672.58  229684.44 -35440.725 265125.166 -786357.02 521231.856 -1181.3575
  59000      .059   -570006.3 179279.751 -26396.776 205676.527 -749286.05 543609.521 -879.89253
 ***                                                             Open  switch  "X0001A"  to  "X0002A"  after  5.90190000E-02  sec.
  59500     .0595  -565738.38 119014.621 -16401.719  135416.34   -684753. 549336.658 -546.72397
 ***                                                             Open  switch  "X0001C"  to  "X0002C"  after  5.99750000E-02  sec.
  60000       .06  -542329.06 50628.3259 -5826.6757 56455.0016 -592957.39 536502.386 -194.22252
  60500     .0605  -499239.42 -23775.407 5011.53117 -28786.938 -475464.01 504250.952 167.051039
  61000      .061  -470658.62 -90385.695 16574.9163 -106960.61 -380272.93 487233.537  552.49721
  61500     .0615  -462123.79 -146192.79 26918.9454 -173111.74   -315931. 489042.733 897.298179
  62000      .062  -391829.31   -161321. 31124.8534 -192445.85 -230508.31 422954.163 1037.49511
  62500     .0625  -322886.84 -190165.25 28984.3874 -219149.63 -132721.59 351871.224 966.146247
  63000      .063  -256106.18 -237074.58 24289.2335 -261363.81 -19031.597 280395.411 809.641116
  63500     .0635   -176780.1 -286277.12 18605.4503 -304882.57  109497.02 195385.547 620.181676
  64000      .064  -86309.325 -335286.45 12175.6899 -347462.14 248977.125 98485.0149 405.856329
  64500     .0645  -24882.787 -360873.47 5228.82013 -366102.29 335990.684  30111.607 174.294004
  65000      .065  26821.7961 -380477.91 -1392.4893 -379085.42 407299.708 -28214.285 -46.416309
  65500     .0655  85666.6173 -397021.29 -9769.7877  -387251.5 482687.903 -95436.405 -325.65959
  66000      .066  126664.435 -430547.46 -13372.411 -417175.05 557211.898 -140036.85 -445.74703
  66500     .0665  192248.184  -447210.5  -12590.16 -434620.34 639458.682 -204838.34 -419.67199
  67000      .067  263312.716 -457695.15 -10736.297 -446958.85 721007.865 -274049.01 -357.87658
  67500     .0675   331708.32  -465642.8 -7909.1756 -457733.62 797351.117  -339617.5 -263.63919
  68000      .068  361753.704 -444866.86 -3933.3146 -440933.55 806620.569 -365687.02 -131.11049
  68500     .0685  388760.595 -415268.56 643.436014 -415911.99 804029.152 -388117.16 21.4478671
  69000      .069  410069.164 -387575.29 5830.42343 -393405.71 797644.455 -404238.74 194.347448
  69500     .0695  441803.678 -348888.83 10050.9592 -358939.79 790692.507 -431752.72 335.031973
  70000       .07  483863.696 -300553.97 11534.6651 -312088.64 784417.667 -472329.03 384.488837
  70500     .0705   511513.95 -258689.35 11492.8935 -270182.24 770203.299 -500021.06 383.096451
  71000      .071  524961.825 -213988.52 11017.6852  -225006.2 738950.344 -513944.14 367.256173
  71500     .0715  508583.012 -143983.45 9724.64334  -153708.1 652566.466 -498858.37 324.154778
  72000      .072  487371.538 -75141.461 7227.12153 -82368.583 562512.999 -480144.42 240.904051
  72500     .0725  459771.678 -11786.034 4324.00523 -16110.039 471557.712 -455447.67 144.133508
  73000      .073  435436.035  46852.343 657.937463 46194.4055 388583.692  -434778.1 21.9312488
  73500     .0735  399723.903 92096.0356 -2554.6765  94650.712 307627.868 -402278.58 -85.155883
  74000      .074  362518.634 134859.363 -3647.7008 138507.064 227659.271 -366166.33 -121.59003
  74500     .0745  313020.886 185043.707  -3672.814 188716.521  127977.18  -316693.7 -122.42713
  75000      .075  244065.329 246789.639 -3588.0895 250377.729 -2724.3108 -247653.42 -119.60298
  75500     .0755  172807.152 296851.017 -3004.1828   299855.2 -124043.87 -175811.33 -100.13943
  76000      .076  104813.177 338387.769 -1572.5767 339960.346 -233574.59 -106385.75 -52.419225
  76500     .0765  42514.5289 367603.203 378.412346 367224.791 -325088.67 -42136.117 12.6137449
  77000      .077  -17079.167 387489.844 2728.03052 384761.813 -404569.01 19807.1974 90.9343506
  77500     .0775  -66075.201 404273.274 4493.95893 399779.315 -470348.47 70569.1597 149.798631
  78000      .078  -131054.15 424872.905 5494.62796 419378.277 -555927.05 136548.777 183.154265
  78500     .0785   -203200.7 444549.096 6023.18214 438525.914  -647749.8 209223.887 200.772738
  79000      .079  -265637.56 451999.475 6205.70106 445793.774 -717637.03  271843.26 206.856702
  79500     .0795  -315301.88 449453.923 5860.00018 443593.923  -764755.8 321161.877 195.333339
  80000       .08  -355347.47  431949.24 5090.61678 426858.623 -787296.71 360438.091 169.687226
  80500     .0805  -385578.32 405414.464 3925.45182 401489.012 -790992.78 389503.768 130.848394
  81000      .081  -410182.21 368370.021 2593.13298 365776.888 -778552.23  412775.34 86.4377659
  81500     .0815  -446992.78 337625.802 1702.80668 335922.995 -784618.58 448695.587 56.7602228
  82000      .082  -476872.21 306243.416 1146.83445 305096.582 -783115.63 478019.045 38.2278149
  82500     .0825    -490846. 265923.303  616.83891 265306.464  -756769.3 491462.837  20.561297
  83000      .083  -491347.84 215528.878 286.393175 215242.485 -706876.71 491634.229 9.54643916
  83500     .0835  -479820.28 156026.183 449.906089 155576.277 -635846.47 480270.191 14.9968696
  84000      .084  -457677.73 92908.1748 995.257054 91912.9177 -550585.91 458672.992 33.1752351
  84500     .0845  -431129.94 27710.3153 1976.50391 25733.8114 -458840.25 433106.443 65.8834638
  % % % % % %   Suspended simulation;  plot data space exhausted;  SPY SPACE is required.   LIMBUF =  340000.
  % % % % % %   Suspended simulation;  plot data space exhausted;  SPY SPACE is required.   LIMBUF =  340000.
  +++  Time-sharing disabled.   Send  user-keyed interrupt to silence alarm.
   Current values.  INDBUF  INDBEG  LIMBUF  MFLUSH  NUMDCD  KCARD1  KCARD2
                    339994      50  340000    1001      37       1      41
Plot timespan now in memory (in sec) = 4.24919985E-02   8.49850000E-02
   ++++  Begin plot-data copy from memory to disk.   MFLUSH, INDBUF, N4, Tbeg,  Tend = 1002  339994       1  -1.00000E+00
1.00000E+19
  85000      .085  -410609.32 -22313.993 2874.11749  -25188.11 -388295.33 413483.437 95.8039163
  85500     .0855  -381421.63 -71125.046 3314.71868 -74439.765 -310296.58 384736.347 110.490623
  86000      .086  -340027.21 -123369.88 3559.91079 -126929.79 -216657.33 343587.121 118.663693
  86500     .0865  -287557.29 -178578.06 3852.16986 -182430.23 -108979.23 291409.461 128.405662
  87000      .087  -225577.18 -232899.28 4006.90999 -236906.19 7322.09722 229584.091 133.563666
  87500     .0875  -159477.67 -284895.06 3962.71694 -288857.78 125417.394 163440.384 132.090565
  88000      .088  -96837.164 -328893.25 3772.35688 -332665.61 232056.089 100609.521 125.745229
  88500     .0885  -44490.861 -356776.35 3217.10443 -359993.46  312285.49 47707.9653 107.236814
  89000      .089  10290.9728 -381688.68 2490.09024 -384178.77  391979.65 -7800.8826 83.0030082
  89500     .0895  71064.7664 -403686.77 1920.42284 -405607.19 474751.532 -69144.344 64.0140948
  90000       .09  136406.009 -422603.56 1479.14222  -424082.7 559009.571 -134926.87 49.3047407
  90500     .0905  201525.205 -436485.87 1059.42271 -437545.29 638011.072 -200465.78 35.3140902
  91000      .091  261986.184 -445114.54   902.0063 -446016.55 707100.724 -261084.18 30.0668767
  91500     .0915  309213.357 -439901.46 966.320053 -440867.78 749114.813 -308247.04 32.2106684
  92000      .092  343000.111 -420382.62 1069.86636 -421452.49 763382.732 -341930.24  35.662212
  92500     .0925  375665.821  -396898.3 1167.89063 -398066.19  772564.12 -374497.93 38.9296876
  93000      .093  408128.444 -369691.03 1250.31542 -370941.35 777819.476 -406878.13 41.6771805
  93500     .0935  437937.703 -339961.68 1341.09689 -341302.78 777899.387 -436596.61 44.7032295
  94000      .094   460941.73 -305899.78 1504.99984 -307404.78 766841.512 -459436.73 50.1666614
  94500     .0945  475588.598 -266995.86 1785.29184 -268781.15  742584.46 -473803.31 59.5097282
  95000      .095  471851.413 -215504.86 1964.04604 -217468.91 687356.277 -469887.37 65.4682015
  95500     .0955  455828.799  -156823.3 1919.73896 -158743.04   612652.1 -453909.06 63.9912985
  96000      .096  437539.823 -99438.573 1680.81198 -101119.39 536978.396 -435859.01 56.0270659
  96500     .0965  416674.892 -44355.311 1403.47631 -45758.788 461030.203 -415271.42 46.7825436
  97000      .097  392036.316 8405.26611 1197.56687 7207.69924  383631.05 -390838.75 39.9188957
  97500     .0975  361238.838 60832.3171 1079.10741 59753.2097 300406.521 -360159.73  35.970247
  98000      .098  322776.677 112995.134  1027.9875 111967.146 209781.543 -321748.69   34.26625
  98500     .0985  268104.246 170858.121 970.378679 169887.742 97246.1255 -267133.87  32.345956
  99000      .099  207982.093 226809.764 875.823206 225933.941 -18827.671 -207106.27 29.1941069
  99500     .0995  149998.139 274702.292 809.478728 273892.813 -124704.15 -149188.66 26.9826243
 100000       0.1  94256.8585 314401.032 857.964142 313543.068 -220144.17 -93398.894 28.5988047
 100500     .1005  39725.0451 346922.838  974.13957 345948.698 -307197.79 -38750.906  32.471319
 101000      .101  -15525.908 373723.987 1143.99199 372579.995  -389249.9 16669.9002 38.1330662
 101500     .1015  -73868.664 396257.693 1389.64074 394868.052 -470126.36 75258.3052 46.3213581
 102000      .102    -139364. 419210.276 1618.52107 417591.755 -558574.28 140982.524 53.9507024
 102500     .1025  -200607.41 434421.823 1722.93317  432698.89 -635029.23 202330.343 57.4311056
 103000      .103  -252986.87 438297.733 1768.27854 436529.454  -691284.6 254755.148  58.942618
 103500     .1035  -296823.09 431564.163 1814.84047 429749.322 -728387.26 298637.934 60.4946824
 104000      .104  -334087.43 416282.982 1843.31541 414439.666 -750370.42  335930.75 61.4438469
 104500     .1045  -366340.69  394178.59  1906.5408 392272.049 -760519.28 368247.228 63.5513599
 105000      .105  -397210.41 369128.237 1998.52363 367129.714 -766338.65 399208.937 66.6174544
 105500     .1055  -427022.55 343555.635 1998.44748 341557.187 -770578.19 429021.002  66.614916
 106000      .106  -446494.14 309908.449 1887.46188 308020.987 -756402.59   448381.6 62.9153959
 106500     .1065  -453520.35 267276.065 1795.37409  265480.69 -720796.41  455315.72 59.8458029
 107000      .107   -449536.6 217398.773  1770.4427  215628.33 -666935.37 451307.042 59.0147565
 107500     .1075  -437450.88 163398.447 1790.37801 161608.069 -600849.33 439241.257 59.6792671
 108000      .108  -418982.58 107222.822 1873.81621 105349.006 -526205.41 420856.399 62.4605404
 108500     .1085   -399419.2 54084.9622 1957.01881 52127.9434 -453504.16 401376.214 65.2339602
 109000      .109   -376540.2  3707.0742 1952.92644 1754.14776 -380247.28 378493.128 65.0975478
 109500     .1095  -343365.69 -49710.666 1899.75568 -51610.422 -293655.02 345265.442 63.3251893
 110000       .11  -299912.95 -105412.62 1874.60436 -107287.22 -194500.33  301787.55 62.4868119
 110500     .1105  -249097.47 -161430.71 1875.52548 -163306.24 -87666.758 250972.998  62.517516
 111000      .111  -194535.05 -214580.99 1880.87162 -216461.86 20045.9419 196415.917 62.6957208
 111500     .1115  -138484.96  -263141.7 1904.59628  -265046.3 124656.743 140389.556 63.4865427
 112000      .112  -86572.545 -302151.39 1886.76457 -304038.15 215578.843 88459.3093 62.8921522
 112500     .1125   -34657.17 -334298.59 1772.50538 -336071.09 299641.416 36429.6753 59.0835126
 113000      .113  22162.3415 -363965.49  1610.9205 -365576.41 386127.827 -20551.421   53.69735
 113500     .1135  82248.2246 -390311.07 1469.41384 -391780.48 472559.291 -80778.811 48.9804612
 114000      .114  142095.002 -411619.08 1363.28084 -412982.36 553714.084 -140731.72 45.4426948
 114500     .1145  198358.593 -425528.93 1293.64891 -426822.58 623887.521 -197064.94 43.1216302
 115000      .115  248594.814 -430725.06 1262.57854 -431987.64 679319.874 -247332.24 42.0859515
 115500     .1155  288755.557 -423908.62 1200.73457 -425109.36  712664.18 -287554.82 40.0244857
 116000      .116  324308.895 -409830.62 1065.98818 -410896.61 734139.513 -323242.91 35.5329392
 116500     .1165  358603.991 -392054.14 920.786977 -392974.92 750658.127  -357683.2 30.6928992
 117000      .117  389700.369 -370164.66 832.719301 -370997.38 759865.033 -388867.65   27.75731
 117500     .1175  414662.527 -342844.78 796.198746 -343640.98 757507.304 -413866.33 26.5399582
 118000      .118  431180.193 -309091.33 799.420368 -309890.75 740271.527 -430380.77 26.6473456
 118500     .1185  437012.597  -267949.3 821.451551 -268770.76 704961.901 -436191.15 27.3817184
 119000      .119  430943.089 -218474.73 794.417611 -219269.15 649417.821 -430148.67  26.480587
 119500     .1195  419298.283 -166510.46 702.577266 -167213.04 585808.742 -418595.71 23.4192422
 120000       .12  404581.922 -114829.77 617.169983 -115446.94 519411.694 -403964.75 20.5723328
 120500     .1205  385345.422 -63255.148 584.190849 -63839.338 448600.569 -384761.23 19.4730283
 121000      .121  359532.212 -10815.117 583.534408 -11398.651 370347.329 -358948.68 19.4511469
 121500     .1215  326135.715 42516.0318 617.646563 41898.3853 283619.683 -325518.07 20.5882188
 122000      .122  283430.243 97801.7048  662.39712 97139.3077 185628.538 -282767.85  22.079904
 122500     .1225  233135.525 154066.953 659.740544 153407.213 79068.5712 -232475.78 21.9913515
 123000      .123  181731.268  205688.26 615.830656 205072.429 -23956.992 -181115.44 20.5276885
 123500     .1235  131008.517 251038.316 596.867137 250441.449  -120029.8 -130411.65 19.8955712
 124000      .124   79869.494 290608.885 628.191497 289980.693 -210739.39 -79241.303 20.9397166
 124500     .1245  26900.8031 325543.218  692.61293 324850.605 -298642.42  -26208.19 23.0870977
 125000      .125  -27992.137 355904.829  794.11616 355110.713 -383896.97 28786.2532 26.4705387
 125500     .1255  -86136.367 383252.682 891.549923 382361.133 -469389.05  87027.917 29.7183308
 126000      .126   -143951.4 405574.384 932.788286 404641.595 -549525.78 144884.187 31.0929429
 126500     .1265  -195859.72 418593.073 941.348962 417651.724  -614452.8 196801.071 31.3782987
 127000      .127  -241137.19 422146.296 975.503436 421170.793 -663283.49 242112.693 32.5167812
  % % % % % %   Suspended simulation;  plot data space exhausted;  SPY SPACE is required.   LIMBUF =  340000.
  % % % % % %   Suspended simulation;  plot data space exhausted;  SPY SPACE is required.   LIMBUF =  340000.
  +++  Time-sharing disabled.   Send  user-keyed interrupt to silence alarm.
   Current values.  INDBUF  INDBEG  LIMBUF  MFLUSH  NUMDCD  KCARD1  KCARD2
                    339994      50  340000    1002      37       1      41
Plot timespan now in memory (in sec) = 8.49839970E-02   1.27477000E-01
   ++++  Begin plot-data copy from memory to disk.   MFLUSH, INDBUF, N4, Tbeg,  Tend = 1003  339994       1  -1.00000E+00
1.00000E+19
 127500     .1275  -281134.64 417593.689 1044.49311 416549.196 -698728.33 282179.132 34.8164371
 128000      .128  -317187.59 406650.042 1132.43245 405517.609 -723837.63 318320.024 37.7477484
 128500     .1285  -349489.93 390096.367 1234.33202 388862.035 -739586.29 350724.259 41.1444008
 129000      .129  -379260.75 369908.589 1306.38386 368602.206 -749169.34 380567.138 43.5461288
 129500     .1295  -402432.78 343836.537 1317.23349 342519.304 -746269.31 403750.009 43.9077831
 130000       .13  -415218.68 309417.651 1306.18124  308111.47 -724636.33 416524.864 43.5393747
 130500     .1305  -418326.31 267839.324 1321.29786 266518.026 -686165.63 419647.607  44.043262
 131000      .131  -413871.73 221327.598 1359.60319 219967.995 -635199.33 415231.337 45.3201063
 131500     .1315  -403565.46 171979.014 1408.87451 170570.139 -575544.47 404974.334 46.9624838
 132000      .132  -388447.87 121312.251   1459.263 119852.988 -509760.12  389907.13    48.6421
 132500     .1325  -369582.27 71184.7889 1471.35585  69713.433 -440767.05 371053.621  49.045195
 133000      .133  -343347.31 19346.0464 1429.99768 17916.0487 -362693.36 344777.308 47.6665894
 133500     .1335  -308029.45 -35229.327 1379.25117 -36608.578 -272800.12 309408.703 45.9750389
 134000      .134   -265665.8  -90689.56 1354.96832 -92044.528 -174976.24 267020.765 45.1656106
 134500     .1345  -219074.36 -144541.01 1346.47583 -145887.49 -74533.352 220420.838 44.8825278
 135000      .135  -170232.88 -194943.52 1345.22275 -196288.75 24710.6398 171578.105 44.8407582
 135500     .1355  -120944.56 -240217.76 1335.60093 -241553.36 119273.205 122280.159 44.5200309
 136000      .136  -71710.405 -279468.02 1281.53531 -280749.56 207757.617 72991.9405 42.7178437
 136500     .1365  -19553.717 -315187.85 1183.74552  -316371.6 295634.137 20737.4627 39.4581839
 137000      .137  35687.6714 -347784.75 1090.22223 -348874.98 383472.424 -34597.449 36.3407411
 137500     .1375  91363.0774 -375577.02 1026.66165 -376603.69 466940.101 -90336.416 34.2220552
 138000      .138  144614.313 -396597.18 978.544371 -397575.73 541211.495 -143635.77 32.6181457
 138500     .1385  193772.127 -409895.54 939.439683 -410834.98 603667.667 -192832.69 31.3146561
 139000      .139  237041.499 -414360.89 889.549619 -415250.44 651402.387 -236151.95  29.651654
 139500     .1395   275051.83 -410652.34 800.123413 -411452.47 685704.175 -274251.71 26.6707804
 140000       .14  310504.938 -401676.38 687.228683  -402363.6 712181.313 -309817.71 22.9076228
 140500     .1405  342959.827  -387853.1 596.769777 -388449.87 730812.922 -342363.06 19.8923259
 141000      .141  370048.159 -368170.53 541.562986  -368712.1 738218.693  -369506.6 18.0520995
 141500     .1415  389666.184 -341632.28 505.119502  -342137.4 731298.466 -389161.06 16.8373167
 142000      .142  401021.533 -308307.63 480.684381 -308788.32 709329.164 -400540.85 16.0228127
 142500     .1425  403199.153 -267982.37 445.410827 -268427.78 671181.526 -402753.74 14.8470276
 143000      .143  398265.583 -222760.73 378.647046 -223139.38 621026.315 -397886.94 12.6215682
 143500     .1435  388972.002 -175693.44 305.559949   -175999. 564665.446 -388666.44 10.1853316
 144000      .144  374960.132 -127288.84 264.667569 -127553.51 502248.976 -374695.46 8.82225231
 144500     .1445  354655.912 -77069.894 257.925078 -77327.819 431725.807 -354397.99 8.59750261
 145000      .145  327098.242 -24804.384 270.046718 -25074.431 351902.626  -326828.2 9.00155727
 145500     .1455  292451.114 28921.5332 292.046528 28629.4867  263529.58 -292159.07 9.73488425
 146000      .146  251020.348 83687.2927 299.660728  83387.632 167333.055 -250720.69 9.98869094
 146500     .1465   205993.16 136717.584 281.366706 136436.217 69275.5765 -205711.79 9.37889019
 147000      .147  160001.927 185493.125 267.514108 185225.611 -25491.198 -159734.41 8.91713692
 147500     .1475  112825.781 229861.721 288.147486 229573.574 -117035.94 -112537.63 9.60491621
 148000      .148  63542.8484 270368.117 336.945267 270031.172 -206825.27 -63205.903 11.2315089
 148500     .1485  12049.1846 307123.429 399.913805 306723.516 -295074.24 -11649.271 13.3304602
 149000      .149  -41051.869 339799.982  464.77851 339335.203 -380851.85 41516.6477  15.492617
 149500     .1495  -94600.319  367912.97  508.30238 367404.667 -462513.29  95108.621 16.9434127
 150000       .15  -145160.44 388990.402 528.360233 388462.042 -534150.84 145688.802 17.6120078
 150500     .1505  -190819.71 401714.443 556.757885 401157.686 -592534.16  191376.47 18.5585962
 151000      .151  -232119.26 406785.959  613.85384 406172.105 -638905.22 232733.118 20.4617947
 151500     .1515  -269933.16 405348.032 687.330149 404660.702 -675281.19 270620.492  22.911005
 152000      .152   -304223.9 397940.565 764.885112  397175.68 -702164.46 304988.785 25.4961704
 152500     .1525  -334674.51 384985.617 832.532238 384153.084 -719660.12 335507.037 27.7510746
 153000      .153  -359980.85 366311.137 870.767622 365440.369 -726291.98 360851.613 29.0255874
 153500     .1535  -377412.73 340329.125 886.355687 339442.769 -717741.85 378299.085 29.5451896
 154000      .154  -386356.72 307099.492 910.179819 306189.312 -693456.21 387266.898 30.3393273
 154500     .1545  -388141.34 268227.698 953.840347 267273.857 -656369.04 389095.179 31.7946782
 155000      .155  -384106.19 225460.248 1002.86589 224457.382 -609566.44  385109.06 33.4288629
 155500     .1555  -374649.92  179807.16 1047.18654 178759.973 -554457.08 375697.111 34.9062182
 156000      .156  -360123.47 132289.156 1072.61359 131216.542 -492412.62  361196.08 35.7537863
 156500     .1565  -339561.07 82904.8618 1065.25398 81839.6078 -422465.93  340626.32 35.5084661
 157000      .157  -311418.08 30855.1773 1039.64163 29815.5357 -342273.25 312457.717 34.6547209
 157500     .1575  -276447.05 -22894.293 1024.06901 -23918.362 -253552.75 277471.114 34.1356336
 158000      .158  -236751.28  -76351.34 1022.69319 -77374.033 -160399.94 237773.973 34.0897729
 158500     .1585  -194106.36 -127724.14 1021.33465 -128745.47 -66382.223 195127.694 34.0444883
 159000      .159  -149368.75 -176013.35 1011.43572 -177024.78  26644.592  150380.19 33.7145241
 159500     .1595  -103305.05 -220282.05 979.685607 -221261.74    116977. 104284.735 32.6561869
 160000       .16  -55210.628 -260888.05 919.064724 -261807.11 205677.418 56129.6931 30.6354908
 160500     .1605  -4505.7077 -298399.19 849.821173 -299249.01 293893.479 5355.52885 28.3273724
 161000      .161  47252.6805 -331754.83 795.885165 -332550.71 379007.508 -46456.795 26.5295055
 161500     .1615  97757.0152 -359334.35 755.294344 -360089.64 457091.361 -97001.721 25.1764781
 162000      .162  145362.315 -380019.79 715.462481 -380735.26 525382.109 -144646.85 23.8487494
 162500     .1625  189256.855 -393418.82 668.717848 -394087.53  582675.67 -188588.14 22.2905949
 163000      .163  228959.366 -399379.33 603.509201 -399982.84 628338.696 -228355.86 20.1169734
 163500     .1635  265391.451 -399057.34 519.589319 -399576.93  664448.79 -264871.86  17.319644
 164000      .164  298811.755 -393286.39 439.889535 -393726.28 692098.149 -298371.87 14.6629845
 164500     .1645  327694.228 -381510.08 382.425691 -381892.51 709204.309  -327311.8  12.747523
 165000      .165  350278.381 -362947.42 340.447405 -363287.87 713225.805 -349937.93 11.3482468
 165500     .1655  365712.518 -337494.56 302.995244 -337797.56 703207.078 -365409.52 10.0998415
 166000      .166  373816.122 -305582.16 262.382905 -305844.55 679398.286 -373553.74 8.74609684
 166500     .1665   375009.42 -268047.75 208.914348 -268256.67 643057.171 -374800.51  6.9638116
 167000      .167  370811.723 -226777.98 147.791554 -226925.77 597589.699 -370663.93 4.92638515
 167500     .1675  361676.333 -182880.34 101.628446 -182981.96 544556.669  -361574.7 3.38761488
 168000      .168  346664.706 -136307.86 81.5791598 -136389.44 482972.566 -346583.13 2.71930533
 168500     .1685  324964.715 -86983.758   77.31812 -87061.076 411948.473  -324887.4 2.57727067
 169000      .169  296750.114 -35524.395 78.8944548  -35603.29  332274.51 -296671.22 2.62981516
 169500     .1695  262648.741 17169.7461  78.122971 17091.6231 245478.995 -262570.62 2.60409903
  % % % % % %   Suspended simulation;  plot data space exhausted;  SPY SPACE is required.   LIMBUF =  340000.
  % % % % % %   Suspended simulation;  plot data space exhausted;  SPY SPACE is required.   LIMBUF =  340000.
  +++  Time-sharing disabled.   Send  user-keyed interrupt to silence alarm.
   Current values.  INDBUF  INDBEG  LIMBUF  MFLUSH  NUMDCD  KCARD1  KCARD2
                    339994      50  340000    1003      37       1      41
Plot timespan now in memory (in sec) = 1.27476007E-01   1.69969000E-01
   ++++  Begin plot-data copy from memory to disk.   MFLUSH, INDBUF, N4, Tbeg,  Tend = 1004  339994       1  -1.00000E+00
1.00000E+19
 170000       .17  224042.735   69700.32 67.4442517 69632.8758 154342.415 -223975.29 2.24814172
 170500     .1705  182923.575 120064.079 56.0797678 120007.999  62859.496 -182867.49 1.86932559
 171000      .171  139931.462 167370.015 64.1236432 167305.891 -27438.553 -139867.34 2.13745477
 171500     .1715  94660.2865 211668.268 95.8450872 211572.423 -117007.98 -94564.441 3.19483624
 172000      .172  47032.3507 252924.922 138.827903 252786.094 -205892.57 -46893.523 4.62759676
 172500     .1725  -2144.1622 290509.982 183.846513 290326.135 -292654.14 2328.00873  6.1282171
 173000      .173  -51814.709 323712.701 222.517047 323490.184 -375527.41 52037.2264  7.4172349
 173500     .1735  -100181.58 351303.124  250.00667 351053.117  -451484.7 100431.585 8.33355565
 174000      .174  -145400.11 371928.005 278.270262 371649.735 -517328.12 145678.385 9.27567539
 174500     .1745  -187121.91 385493.892 323.660055 385170.232  -572615.8 187445.566 10.7886685
 175000      .175   -225748.9 392619.329 384.634942 392234.694 -618368.23 226133.532 12.8211647
 175500     .1755  -261247.37 393724.783 448.446402 393276.336 -654972.16 261695.819 14.9482134
 176000      .176  -292900.39 388758.182 506.801464  388251.38 -681658.57 293407.188 16.8933821
 176500     .1765  -319865.12 377654.634 551.993764 377102.641 -697519.75 320417.114 18.3997921
 177000      .177  -340683.41 359839.776 582.691624 359257.084 -700523.19 341266.103 19.4230541
 177500     .1775  -354344.63 335000.757 612.682611 334388.075 -689345.39 354957.315 20.4227537
 178000      .178  -361299.09  304019.89 654.364386 303365.526 -665318.98 361953.454 21.8121462
 178500     .1785  -362454.48 268212.656 702.243392 267510.413 -630667.13 363156.722 23.4081131
 179000      .179  -358191.42 228540.537 744.827829 227795.709 -586731.96  358936.25 24.8275943
 179500     .1795  -348405.34 185575.703  775.24128 184800.461 -533981.05 349180.586  25.841376
 180000       .18  -332855.45 139796.641 787.567411 139009.074 -472652.09  333643.02  26.252247
 180500     .1805  -310849.98 91196.4904 784.515358  90411.975 -402046.47 311634.496 26.1505119
 181000      .181  -282466.62 40259.2639 780.872045 39478.3919 -322725.89 283247.495 26.0290682
 181500     .1815  -249022.29  -11569.17 785.256661 -12354.427 -237453.12 249807.548  26.175222
 182000      .182  -211970.49 -62721.307 790.055548 -63511.363 -149249.18 212760.545 26.3351849
 182500     .1825  -172128.26 -112152.76 785.937295  -112938.7 -59975.498 172914.196 26.1979098
 183000      .183  -129948.92 -159171.61 767.733653 -159939.35 29222.6912 130716.657 25.5911218
 183500     .1835    -85634.8 -203337.09 732.030907 -204069.12 117702.289 86366.8309 24.4010302
 184000      .184   -39094.56 -244629.52 685.311163 -245314.83 205534.959 39779.8707 22.8437054
 184500     .1845  8865.41912 -282436.72 642.216982 -283078.94 291302.139 -8223.2021 21.4072327
 185000      .185  56548.5584 -315483.33 607.699313 -316091.03  372031.89 -55940.859 20.2566438
 185500     .1855  102445.669 -342650.11 573.306725 -343223.42 445095.782 -101872.36 19.1102242
 186000      .186  145778.593 -363446.81 531.902902 -363978.71 509225.398 -145246.69 17.7300967
 186500     .1865  186086.613 -377701.92  479.81829 -378181.74 563788.532 -185606.79  15.993943
 187000      .187  223290.005 -385617.68 416.148604 -386033.82 608907.681 -222873.86 13.8716201
 187500     .1875  257439.513 -387670.54 350.040846 -388020.58 645110.055 -257089.47 11.6680282
 188000      .188  287695.795 -383699.99   294.5787 -383994.57 671395.783 -287401.22    9.81929
 188500     .1885  312698.571 -373137.66 250.999878 -373388.66 685836.233 -312447.57 8.36666261
 189000      .189  331533.704 -355745.68 210.600222 -355956.28 687279.386  -331323.1 7.02000742
 189500     .1895  344030.709 -331894.78 167.800872 -332062.59 675925.494 -343862.91 5.59336241
 190000       .19  350310.145 -302200.66 119.843961 -302320.51  652510.81  -350190.3 3.99479872
 190500     .1905   350918.59 -267659.69 67.8126941  -267727.5 618578.276 -350850.78 2.26042314
 191000      .191  346329.706 -229303.13 21.9640781 -229325.09 575632.834 -346307.74 .732135936
 191500     .1915  336185.752 -187488.38 -7.5333462 -187480.84  523674.13 -336193.28 -.25111154
 192000      .192  319899.011 -142323.79 -23.104688 -142300.69 462222.804 -319922.12 -.77015628
 192500     .1925  297460.381 -94298.335 -33.497577 -94264.838 391758.717 -297493.88 -1.1165859
 193000      .193  269494.805 -44365.904 -43.470849 -44322.433 313860.709 -269538.28 -1.4490283
 193500     .1935  236859.196 6387.28185 -55.359067 6442.64092 230471.914 -236914.55 -1.8453022
 194000      .194  200747.428 56605.6682 -66.677751 56672.3459  144141.76 -200814.11 -2.2225917
 194500     .1945  162033.726 105179.181  -67.44595 105246.627 56854.5447 -162101.17 -2.2481983
 195000      .195  120820.476 151693.523 -51.182915 151744.706 -30873.046 -120871.66 -1.7060972
 195500     .1955  77157.2351 195897.208 -23.419396 195920.627 -118739.97 -77180.654 -.78064653
 196000      .196   31672.528 237188.627 7.36286907 237181.264  -205516.1 -31665.165 .245428969
 196500     .1965  -14575.017 274695.034 36.9061961 274658.127 -289270.05 14611.9235 1.23020654
 197000      .197  -60390.626 307513.436 63.3002675 307450.135 -367904.06 60453.9265 2.11000892
 197500     .1975  -104434.92 334633.682 90.1589907 334543.523 -439068.61 104525.083 3.00529969
 198000      .198  -145926.28 355519.838 126.413734 355393.425 -501446.12 146052.692 4.21379114
 198500     .1985  -184784.15  370290.77 174.946963 370115.823 -555074.92 184959.098 5.83156542
 199000      .199  -220879.71 379145.351 228.283254 378917.068 -600025.06 221107.989 7.60944179
 199500     .1995  -253581.54 381968.662 278.805392 381689.856 -635550.21 253860.349 9.29351305
 200000       0.2  -282041.31 378522.635 322.990629 378199.644 -660563.95 282364.306 10.7663543
 200500     .2005  -305363.36 368573.304 359.861847 368213.443 -673936.66 305723.219 11.9953949
 201000      .201  -322716.96 351909.678   394.2293 351515.448 -674626.63 323111.187 13.1409767
 201500     .2015  -333977.74 328894.436 433.808378 328460.627 -662872.18 334411.549 14.4602793
 202000      .202   -339596.3 300404.461 478.655794 299925.805 -640000.76 340074.953 15.9551931
 202500     .2025  -339879.86 267264.741 520.805208 266743.935  -607144.6 340400.669 17.3601736
 203000      .203  -334709.86 229978.951 554.212756 229424.739 -564688.81 335264.071 18.4737585
 203500     .2035  -323885.91 188975.242  576.59711 188398.645 -512861.16  324462.51 19.2199037
 204000      .204   -307193.9  144638.06 588.549629  144049.51 -451831.96  307782.45  19.618321
 204500     .2045  -284630.18 97434.0996 596.150452 96837.9491 -382064.28 285226.327 19.8716817
 205000      .205  -256902.67 48361.9266  605.95798 47755.9687 -305264.59 257508.626 20.1985993
 205500     .2055  -225088.15 -1287.9722 616.158272 -1904.1305 -223800.17 225704.304 20.5386091
 206000      .206  -189989.61 -50449.244 619.497967 -51068.742 -139540.36 190609.107 20.6499322
 206500     .2065  -152018.02 -98417.841 611.915635 -99029.756 -53600.175 152629.931 20.3971878
 207000      .207  -111528.46 -144598.33 592.668858   -145191. 33069.8682 112121.132 19.7556286
 207500     .2075  -68834.999   -188522. 564.173909 -189086.18 119687.006 69399.1732  18.805797
 208000      .208  -24518.951 -229623.63  533.46902  -230157.1 205104.676 25052.4203 17.7823007
 208500     .2085  20251.1164 -266929.45 505.822264 -267435.27 287180.565 -19745.294 16.8607421
 209000      .209  64193.3376 -299405.64 478.209091 -299883.85 363598.975 -63715.128  15.940303
 209500     .2095  106444.762 -326390.84 444.628595 -326835.46 432835.598 -106000.13 14.8209532
 210000       .21  146527.883 -347603.46 402.832568 -348006.29  494131.34 -146125.05 13.4277523
 210500     .2105  184062.684 -362912.17 353.420059 -363265.59 546974.851 -183709.26 11.7806686
 211000      .211  218750.544 -372352.41 300.270925 -372652.68 591102.955 -218450.27 10.0090308
 211500     .2115  250019.514 -375834.42 250.571617 -376084.99 625853.931 -249768.94 8.35238723
 212000      .212  276889.987  -372977.3 207.853322 -373185.16 649867.292 -276682.13 6.92844407
  % % % % % %   Suspended simulation;  plot data space exhausted;  SPY SPACE is required.   LIMBUF =  340000.
  % % % % % %   Suspended simulation;  plot data space exhausted;  SPY SPACE is required.   LIMBUF =  340000.
  +++  Time-sharing disabled.   Send  user-keyed interrupt to silence alarm.
   Current values.  INDBUF  INDBEG  LIMBUF  MFLUSH  NUMDCD  KCARD1  KCARD2
                    339994      50  340000    1004      37       1      41
Plot timespan now in memory (in sec) = 1.69967994E-01   2.12461000E-01
   ++++  Begin plot-data copy from memory to disk.   MFLUSH, INDBUF, N4, Tbeg,  Tend = 1005  339994       1  -1.00000E+00
1.00000E+19
 212500     .2125  298499.826 -363500.47 168.106766 -363668.58 662000.295 -298331.72 5.60355885
 213000      .213  314501.073 -347550.82 126.457316 -347677.28 662051.897 -314374.62 4.21524387
 213500     .2135  324898.995 -325596.23 81.8234912 -325678.05 650495.222 -324817.17 2.72744971
 214000      .214  329826.553 -298238.56 35.5607962 -298274.12 628065.114 -329790.99 1.18535987
 214500     .2145  329485.834 -266191.28 -7.7862448 -266183.49 595677.115 -329493.62 -.25954149
 215000      .215  323790.343 -229962.42 -41.918078  -229920.5 553752.762 -323832.26 -1.3972693
 215500     .2155  312396.319  -189826.2 -65.542029 -189760.65 502222.514 -312461.86 -2.1847343
 216000      .216  295214.909 -146210.97 -83.616111 -146127.35 441425.876 -295298.53 -2.7872037
 216500     .2165  272662.416 -99914.899 -100.29679 -99814.602 372577.315 -272762.71 -3.3432264
 217000      .217  245411.573 -51921.281 -116.20519 -51805.076 297332.854 -245527.78 -3.8735064
 217500     .2175  214225.654 -3262.6883 -129.80359 -3132.8847 217488.342 -214355.46 -4.3267864
 218000      .218  179841.513 45053.5063 -136.66041 45190.1667 134788.006 -179978.17  -4.555347
 218500     .2185  142654.944 92336.4082 -132.14274  92468.551 50318.5357 -142787.09 -4.4047578
 219000      .219  102886.509 138119.743  -117.3326 138237.075 -35233.234 -103003.84 -3.9110867
 219500     .2195  61040.5021 181802.896  -97.90665 181900.803 -120762.39 -61138.409  -3.263555
 220000       .22  18015.4279  222538.36 -77.521462 222615.882 -204522.93 -18092.949 -2.5840487
 220500     .2205   -25181.88 259448.214 -56.669977 259504.884 -284630.09 25125.2104 -1.8889992
 221000      .221  -67552.507  291708.98 -33.821095 291742.801 -359261.49 67518.6858 -1.1273698
 221500     .2215  -108270.74 318669.488 -5.0197977 318674.508 -426940.23 108265.723 -.16732659
 222000      .222  -146913.76 340071.435 32.5137538 340038.922 -486985.19 146946.271 1.08379179
 222500     .2225  -183195.33 355860.809  75.785914 355785.023 -539056.14 183271.121 2.52619713
 223000      .223  -216579.12 365870.463 119.014554 365751.449 -582449.58 216698.132 3.96715181
 223500     .2235   -246285.8 369793.837 159.231654 369634.605 -616079.64 246445.034 5.30772179
 224000      .224  -271566.95 367390.911 196.248898 367194.662 -638957.86 271763.199 6.54162994
 224500     .2245  -291784.03  358531.93 231.845389 358300.085 -650315.96 292015.878 7.72817965
 225000      .225  -306595.78  343339.12 269.596725 343069.523  -649934.9 306865.381 8.98655749
 225500     .2255  -316074.95 322309.933 310.796716 321999.136 -638384.88 316385.742 10.3598905
 226000      .226  -320377.05 296062.462 351.453677 295711.008 -616439.51   320728.5 11.7151226
 226500     .2265  -319433.44 265069.595 386.507543 264683.087 -584503.03 319819.944 12.8835848
 227000      .227  -313046.41 229701.397 414.104704 229287.292 -542747.81 313460.514 13.8034901
 227500     .2275  -301116.87 190394.892 434.797303 189960.094 -491511.76 301551.666 14.4932434
 228000      .228  -283701.05 147676.003 451.015375 147224.987 -431377.05  284152.06 15.0338458
 228500     .2285  -261191.07 102305.909 466.212854 101839.696 -363496.98 261657.284 15.5404285
 229000      .229  -234312.91 55304.6716 480.749131 54823.9224 -289617.58 234793.658  16.024971
 229500     .2295  -203768.13  7667.6057 490.559938 7177.04576 -211435.73 204258.688 16.3519979
 230000       .23   -170012.4 -39836.108 491.945454 -40328.053  -130176.3 170504.349 16.3981818
 230500     .2305  -133409.75 -86566.896 484.437283 -87051.333 -46842.858 133894.191 16.1479094
 231000      .231  -94402.659 -131886.46 469.594224 -132356.05 37483.7996 94872.2533 15.6531408
 231500     .2315  -53563.663 -175133.86 450.633757  -175584.5   121570.2 54014.2964 15.0211252
 232000      .232  -11747.773  -215488.5 430.916208 -215919.41 203740.724 12178.6893 14.3638736
 232500     .2325  30011.4941 -252028.24  410.18922 -252438.43  282039.73 -29601.305  13.672974
 233000      .233  70848.3907 -284004.68 384.834289 -284389.52 354853.072 -70463.556 12.8278096
 233500     .2335  110194.343  -310967.4 352.632114 -311320.04 421161.748 -109841.71 11.7544038
 234000      .234  147588.229  -332626.5  314.32587 -332940.83 480214.731  -147273.9  10.477529
 234500     .2345  182555.354 -348756.98 272.298562 -349029.28  531312.33 -182283.06 9.07661872
 235000      .235  214545.278 -359154.09 230.211824  -359384.3 573699.364 -214315.07 7.67372748
 235500     .2355  242819.335 -363516.21 190.964881 -363707.17 606335.544 -242628.37 6.36549604
 236000      .236  266624.824 -361558.36 153.633353   -361712. 628183.188 -266471.19 5.12111178
 236500     .2365  285495.193 -353250.03 115.045516 -353365.07  638745.22 -285380.15 3.83485053
 237000      .237  299284.537 -338857.62 74.0641335 -338931.68 638142.156 -299210.47 2.46880445
 237500     .2375  307961.982 -318782.66 32.0698914 -318814.73 626744.647 -307929.91 1.06899638
 238000      .238  311522.399 -293487.26 -8.2868582 -293478.98 605009.662 -311530.69 -.27622861
 238500     .2385  309906.219 -263423.49 -43.573529 -263379.92 573329.711 -309949.79  -1.452451
 239000      .239  302932.957 -228947.56   -71.9278 -228875.63 531880.517 -303004.88 -2.3975933
 239500     .2395  290511.914  -190465.5  -95.19276 -190370.31 480977.416 -290607.11  -3.173092
 240000       .24  272874.274 -148619.22 -116.36063 -148502.85  421493.49 -272990.63 -3.8786878
 240500     .2405  250520.766 -104256.59  -136.0751 -104120.52 354777.359 -250656.84 -4.5358366
 241000      .241  224019.213 -58266.956 -152.94836 -58114.007 282286.168 -224172.16 -5.0982785
 241500     .2415  193932.567 -11521.329 -164.63707 -11356.691 205453.896  -194097.2 -5.4879022
 242000      .242  160726.324 35213.6115 -168.54366 35382.1551 125512.713 -160894.87 -5.6181219
 242500     .2425  124753.052 81317.2243 -164.23506 81481.4593  43435.828 -124917.29 -5.4745019
 243000      .243  86473.8599 126151.668 -154.53878 126306.207 -39677.809 -86628.399 -5.1512927
 243500     .2435  46616.2013 168927.731 -142.40916  169070.14 -122311.53  -46758.61  -4.746972
 244000      .244   6056.3242 208785.261 -128.36007 208913.621 -202728.94 -6184.6843 -4.2786692
 244500     .2445  -34360.612 244937.533 -111.30234 245048.835 -279298.15   34249.31  -3.710078
 245000      .245  -73880.721 276716.389  -89.43318 276805.822 -350597.11 73791.2882  -2.981106
 245500     .2455  -111929.37 303653.884 -61.182988 303715.067 -415583.26 111868.189 -2.0394329
 246000      .246   -148071.4 325470.088 -27.464159 325497.552 -473541.49 148043.936 -.91547196
 246500     .2465  -181794.29 341901.178 8.26111395 341892.917 -523695.47 181802.554 .275370465
 247000      .247  -212418.08 352610.039 43.2901873 352566.749 -565028.12 212461.374 1.44300624
 247500     .2475    -239248.   357291.6 77.2997168   357214.3  -596539.6 239325.296 2.57665723
 248000      .248  -261715.83 355780.852 111.231016 355669.621 -617496.68 261827.063 3.70770052
 248500     .2485  -279427.12 348082.764 146.541996 347936.222 -627509.89 279573.663  4.8847332
 249000      .249  -292224.34 334431.244 184.037963 334247.206 -626655.59 292408.383 6.13459876
 249500     .2495   -300092.7 315223.208   221.9911 315001.217 -615315.91 300314.691 7.39970334
 250000       .25  -302957.74 290847.848 256.979291 290590.868 -593805.58 303214.717 8.56597636
 250500     .2505  -300651.38 261636.289 287.018628  261349.27 -562287.67 300938.396  9.5672876
 251000      .251  -293071.16 227972.126 312.316262  227659.81 -521043.29 293383.478 10.4105421
 251500     .2515  -280276.59 190360.272 334.065157 190026.207 -470636.86 280610.655 11.1355052
 252000      .252  -262521.73 149445.507 353.765979 149091.741 -411967.23 262875.492 11.7921993
 252500     .2525  -240280.31 106040.648 371.905008 105668.743 -346320.96 240652.217 12.3968336
 253000      .253  -214107.73 61020.0712 386.587098 60633.4841  -275127.8 214494.312 12.8862366
 253500     .2535  -184463.65 15164.9106 395.077733 14769.8329 -199628.56 184858.731 13.1692578
 254000      .254  -151724.97  -30848.49  396.49254 -31244.983 -120876.48 152121.467  13.216418
 254500     .2545  -116333.35 -76341.889 391.830453 -76733.719  -39991.46  116725.18 13.0610151
  % % % % % %   Suspended simulation;  plot data space exhausted;  SPY SPACE is required.   LIMBUF =  340000.
  % % % % % %   Suspended simulation;  plot data space exhausted;  SPY SPACE is required.   LIMBUF =  340000.
  +++  Time-sharing disabled.   Send  user-keyed interrupt to silence alarm.
   Current values.  INDBUF  INDBEG  LIMBUF  MFLUSH  NUMDCD  KCARD1  KCARD2
                    339994      50  340000    1005      37       1      41
Plot timespan now in memory (in sec) = 2.12459996E-01   2.54953000E-01
   ++++  Begin plot-data copy from memory to disk.   MFLUSH, INDBUF, N4, Tbeg,  Tend = 1006  339994       1  -1.00000E+00
1.00000E+19
 255000      .255  -78852.314  -120595.2 382.804807   -120978. 41742.8817 79235.1189 12.7601602
 255500     .2555  -39988.247 -162830.62 371.168968 -163201.79 122842.376 40359.4164 12.3722989
 256000      .256  -576.26518 -202212.13 357.345469 -202569.47 201635.864 933.610648 11.9115156
 256500     .2565      38581. -237970.26 339.657731 -238309.92 276551.258 -38241.342 11.3219244
 257000      .257  76852.1547  -269523.8 316.328554 -269840.13 346375.959 -76535.826 10.5442851
 257500     .2575  113722.309 -296450.44 287.564753 -296738.01  410172.75 -113434.74 9.58549177
 258000      .258  148663.319 -318385.12 255.054886 -318640.18  467048.44 -148408.26 8.50182952
 258500     .2585  181101.197  -334993.1  220.91055 -335214.01 516094.298 -180880.29   7.363685
 259000      .259  210400.435 -345948.69 186.956303 -346135.64 556349.124 -210213.48 6.23187678
 259500     .2595  235908.433  -350953.9  153.43253 -351107.33 586862.329   -235755. 5.11441767
 260000       .26  257115.302  -349859.7 118.849168 -349978.55 606975.001 -256996.45 3.96163892
 260500     .2605  273741.553 -342742.27 82.1876368 -342824.45 616483.819 -273659.37 2.73958789
 261000      .261  285646.142 -329835.04 44.3208392 -329879.37 615481.187 -285601.82 1.47736131
 261500     .2615  292713.801 -311432.95  7.1679205 -311440.12  604146.75 -292706.63 .238930683
 262000      .262  294831.652 -287866.63 -27.223032 -287839.41 582698.286 -294858.88  -.9074344
 262500     .2625  291874.478 -259474.98 -57.426595 -259417.56 551349.463  -291931.9 -1.9142198
 263000      .263  283768.015 -226637.17 -83.742317 -226553.43 510405.183 -283851.76 -2.7914106
 263500     .2635  270627.697 -189877.22 -107.75729 -189769.46 460504.913 -270735.45 -3.5919096
 264000      .264  252790.547 -149893.69 -130.17103 -149763.52 402684.241 -252920.72 -4.3390343
 264500     .2645  230695.837 -107464.94 -150.01635 -107314.92 338160.774 -230845.85  -5.000545
 265000      .265   204789.24 -63364.405 -165.67322 -63198.732 268153.645 -204954.91 -5.5224408
 265500     .2655  175500.803 -18334.563 -175.64552 -18158.917 193835.366 -175676.45 -5.8548506
 266000      .266    143233.7 26938.4339 -179.33184 27117.7657 116295.266 -143413.03  -5.977728
 266500     .2665  108439.136 71778.9884 -177.83358  71956.822  36660.148 -108616.97 -5.9277859
 267000      .267  71725.3142 115436.102 -173.02871 115609.131 -43710.788 -71898.343 -5.7676238
 267500     .2675  33840.2854 157090.123 -165.61261 157255.736 -123249.84 -34005.898 -5.5204204
 268000      .268  -4457.8553 195955.199 -154.87913 196110.078 -200413.05 4302.97619 -5.1626378
 268500     .2685  -42476.085 231343.578 -139.76651 231483.344 -273819.66 42336.3187 -4.6588836
 269000      .269  -79605.091 262685.584 -119.51566   262805.1 -342290.68 79485.5758 -3.9838555
 269500     .2695  -115318.03 289539.629 -94.421219  289634.05 -404857.66 115223.612  -3.147374
 270000       .27  -149085.74 311529.618 -66.283014 311595.901 -460615.36 149019.454 -2.2094338
 270500     .2705  -180296.16 328273.371  -37.13052 328310.501 -508569.53 180259.025  -1.237684
 271000      .271  -208304.98 339410.882 -7.6172428 339418.499 -547715.86 208297.359 -.25390809
 271500     .2715  -232556.16 344695.604  22.749396 344672.855 -577251.76 232578.908   .7583132
 272000      .272  -252630.57 344031.525 54.6205429 343976.905 -596662.09 252685.189 1.82068476
 272500     .2725  -268253.83 337479.713 88.2344637 337391.478 -605733.54 268342.064 2.94114879
 273000      .273  -279273.04 325243.857 122.730932 325121.126 -604516.89 279395.768 4.09103106
 273500     .2735  -285562.64 307591.541 156.074624 307435.467 -593154.19 285718.719 5.20248748
 274000      .274  -286967.27 284794.617 186.516828   284608.1 -571761.89 287153.792 6.21722759
 274500     .2745  -283369.03 257167.768 213.765863 256954.003  -540536.8 283582.799 7.12552877
 275000      .275  -274783.93 225138.377  238.43108 224899.946 -499922.31 275022.363 7.94770265
 275500     .2755  -261382.25 189257.789 261.141645 188996.647 -450640.03 261643.387  8.7047215
 276000      .276  -243480.39 150193.405 282.033401 149911.372  -393673.8 243762.428 9.40111338
 276500     .2765  -221492.77 108690.776 300.174528 108390.601 -330183.54 221792.941 10.0058176
 277000      .277  -195833.41 65487.5828 313.841474 65173.7414 -261320.99 196147.253 10.4613825
 277500     .2775   -166880.3 21270.0102 322.004349 20948.0058 -188150.31 167202.304 10.7334783
 278000      .278  -135048.47 -23281.555 325.037497 -23606.593 -111766.91 135373.507 10.8345832
 278500     .2785  -100858.12 -67442.775   323.9584 -67766.734 -33415.347 101182.081 10.7986133
 279000      .279  -64932.609 -110449.62 319.670328 -110769.29 45517.0078 65252.2796 10.6556776
 279500     .2795  -27976.218 -151514.23 312.492204 -151826.72 123538.008 28288.7104 10.4164068
 280000       .28  9291.92566 -189875.72 301.738424 -190177.46 199167.644 -8990.1872 10.0579475
 280500     .2805  46228.9574 -224878.63  286.29349 -225164.93  271107.59 -45942.664 9.54311634
 281000      .281   82279.294 -255992.19 265.982197 -256258.17 338271.482 -82013.312 8.86607323
 281500     .2815  116898.796 -282755.15 241.847592   -282997. 399653.948 -116656.95 8.06158641
 282000      .282  149509.213 -304737.79 215.295765 -304953.09 454247.003 -149293.92 7.17652551
 282500     .2825  179510.793  -321548.3 187.463143 -321735.77 501059.096 -179323.33 6.24877144
 283000      .283  206311.006 -332847.85 158.791797 -333006.64 539158.856 -206152.21  5.2930599
 283500     .2835  229395.292 -338401.06 128.799355 -338529.86 567796.355 -229266.49 4.29331185
 284000      .284  248397.378 -338133.44 96.8779018 -338230.31 586530.814  -248300.5 3.22926339
 284500     .2845  263081.069 -332120.57 63.4477759 -332184.02 595201.642 -263017.62 2.11492586
 285000      .285  273261.343 -320522.69 29.8703881 -320552.56  593784.03 -273231.47 .995679605
 285500     .2855   278771.87 -303551.03 -2.4075311 -303548.63 582322.903 -278774.28 -.08025104
 286000      .286  279477.188 -281468.31  -32.36843 -281435.94   560945.5 -279509.56 -1.0789477
 286500     .2865  275300.577 -254598.83 -59.786027 -254539.04 529899.405 -275360.36 -1.9928676
 287000      .287   266287.44 -223371.04  -85.24276  -223285.8 489658.483 -266372.68 -2.8414253
 287500     .2875  252646.099 -188348.97 -109.19274 -188239.78 440995.066 -252755.29 -3.6397579
 288000      .288     234701. -150194.55 -131.08433 -150063.47 384895.552 -234832.08 -4.3694777
 288500     .2885  212813.007 -109597.67 -149.72212 -109447.94 322410.673 -212962.73 -4.9907375
 289000      .289  187354.326 -67246.823 -164.05376 -67082.769 254601.149 -187518.38 -5.4684587
 289500     .2895  158716.259 -23825.011 -173.57608 -23651.435 182541.269 -158889.83 -5.7858693
 290000       .29  127334.648 19981.0218 -178.61135 20159.6332 107353.626 -127513.26 -5.9537116
 290500     .2905   93741.121 63445.1195 -180.11022 63625.2297 30296.0015 -93921.231  -6.003674
 291000      .291  58575.0784 105791.125 -178.66747 105969.793 -47216.047 -58753.746 -5.9555824
 291500     .2915  22517.3425 146245.194 -173.94463 146419.139 -123727.85 -22691.287 -5.7981544
 292000      .292  -13782.538 184098.459 -165.21189 184263.671   -197881. 13617.3258 -5.5070628
 292500     .2925  -49722.704 218725.824 -152.02471 218877.849 -268448.53 49570.6795 -5.0674903
 293000      .293  -84741.299  249586.14 -134.53444 249720.675 -334327.44 84606.7649 -4.4844813
 293500     .2935  -118288.75  276205.14 -113.65883 276318.799 -394493.89 118175.087 -3.7886278
 294000      .294  -149785.91 298140.587 -90.693552 298231.281  -447926.5 149695.217 -3.0231184
 294500     .2945  -178632.24 314982.256 -66.369567 315048.626 -493614.49 178565.868 -2.2123189
 295000      .295  -204276.99 326404.079 -40.570938  326444.65 -530681.07 204236.415 -1.3523646
 295500     .2955  -226274.47 332207.929 -12.971645 332220.901  -558482.4   226261.5 -.43238818
 296000      .296   -244286.7 332325.652 16.4123788  332309.24 -576612.35 244303.108 .547079292
 296500     .2965  -258067.78   326807.1 46.9935949 326760.107 -584874.88 258114.774 1.56645316
 297000      .297  -267427.87 315789.391 77.5583008 315711.833 -583217.26  267505.43 2.58527669
  % % % % % %   Suspended simulation;  plot data space exhausted;  SPY SPACE is required.   LIMBUF =  340000.
  % % % % % %   Suspended simulation;  plot data space exhausted;  SPY SPACE is required.   LIMBUF =  340000.
  +++  Time-sharing disabled.   Send  user-keyed interrupt to silence alarm.
   Current values.  INDBUF  INDBEG  LIMBUF  MFLUSH  NUMDCD  KCARD1  KCARD2
                    339994      50  340000    1006      37       1      41
Plot timespan now in memory (in sec) = 2.54952013E-01   2.97445000E-01
   ++++  Begin plot-data copy from memory to disk.   MFLUSH, INDBUF, N4, Tbeg,  Tend = 1007  339994       1  -1.00000E+00
1.00000E+19
 297500     .2975  -272195.73 299459.024 106.801122 299352.223 -571654.75  272302.53 3.56003741
 298000      .298   -272236.7 278055.124 134.147644 277920.977 -550291.82 272370.844 4.47158813
 298500     .2985  -267515.59 251911.912 159.768355 251752.144  -519427.5 267675.354 5.32561184
 299000      .299  -258127.74   221479.6 183.915299 221295.685 -479607.34 258311.658 6.13050996
 299500     .2995  -244285.19 187309.836  206.48957 187103.346 -431595.03 244491.681 6.88298567
 300000       0.3  -226288.81 150030.707 226.879205 149803.827 -376319.52  226515.69 7.56264017
 300500     .3005  -204482.66 110304.771 244.020937  110060.75 -314787.43 204726.683 8.13403123
 301000      .301  -179220.08 68791.6608 257.021362 68534.6395 -248011.74 179477.099 8.56737872
 301500     .3015  -150886.03 26154.8563 265.801421 25889.0549 -177040.89 151151.832 8.86004738
 302000      .302  -119946.02 -16905.665  270.88661 -17176.551 -103040.36 120216.907 9.02955368
 302500     .3025  -86954.593  -59649.57 272.768937 -59922.339 -27305.023 87227.3617 9.09229789
 303000      .303     -52529. -101319.23 271.579845 -101590.81 48790.2337 52800.5801  9.0526615
 303500     .3035  -17312.307 -141170.45 266.987981 -141437.43 123858.139 17579.2948 8.89959937
 304000      .304  18075.4598 -178515.38 258.370169 -178773.75 196590.842  -17817.09 8.61233898
 304500     .3045  53062.4667 -212750.01 245.457806 -212995.47 265812.481 -52817.009 8.18192688
 305000      .305  87097.0824 -243337.87 228.772167 -243566.64 330434.948  -86868.31 7.62573891
 305500     .3055   119610.31 -269780.83 209.248962 -269990.07 389391.136 -119401.06 6.97496539
 306000      .306   150020.72 -291621.13 187.663932  -291808.8 441641.854 -149833.06 6.25546439
 306500     .3065  177763.933 -308461.83 164.397127 -308626.23 486225.764 -177599.54 5.47990422
 307000      .307  202329.789 -319993.06 139.390648 -320132.45 522322.846  -202190.4 4.64635493
 307500     .3075  223303.689 -326024.55 112.416912 -326136.97 549328.243 -223191.27  3.7472304
 308000      .308  240375.125 -326494.23 83.6961146 -326577.93 566869.356 -240291.43 2.78987049
 308500     .3085  253300.144 -321437.59 54.1198136 -321491.71 574737.737 -253246.02 1.80399379
 309000      .309  261868.967 -310956.45 24.7750563 -310981.23 572825.421 -261844.19 .825835208
 309500     .3095  265913.877 -295218.12 -3.5395038 -295214.58 561131.993 -265917.42 -.11798346
 310000       .31  265333.004 -274466.58 -30.467978 -274436.11 539799.587 -265363.47 -1.0155993
 310500     .3105   260119.65 -249038.96 -56.073993 -248982.88 509158.609 -260175.72 -1.8691331
 311000      .311  250387.888 -219382.21 -80.491954 -219301.72 469770.099 -250468.38 -2.6830651
 311500     .3115  236360.409 -186041.45 -103.38105 -185938.07 422401.858 -236463.79 -3.4460351
 312000      .312     218321. -149617.31 -123.89282 -149493.42 367938.308 -218444.89 -4.1297605
 312500     .3125  196584.336 -110733.64 -141.18416 -110592.46 307317.975 -196725.52 -4.7061385
 313000      .313  171501.516 -70033.326 -154.79566  -69878.53 241534.842 -171656.31 -5.1598554
 313500     .3135  143475.594 -28182.315 -164.73181 -28017.583  171657.91 -143640.33 -5.4910605
 314000      .314  112981.113 14121.0735 -171.36727 14292.4408  98860.039 -113152.48 -5.7122425
 314500     .3145   80573.263   56141.43 -175.04137 56316.4713  24431.833 -80748.304 -5.8347124
 315000      .315  46858.8732 97130.7248 -175.61472 97306.3395 -50271.852 -47034.488 -5.8538239
 315500     .3155   12445.148 136373.079 -172.59362 136545.673 -123927.93 -12617.742 -5.7531207
 316000      .316  -22085.161 173210.484 -165.62833 173376.113 -195295.65 21919.5324 -5.5209443
 316500     .3165  -56168.345 207043.793  -154.7836 207198.577 -263212.14 56013.5614 -5.1594533
 317000      .317  -89247.754 237327.396 -140.55277 237467.948 -326575.15  89107.201 -4.6850924
 317500     .3175  -120759.26  263558.91 -123.69545 263682.606 -384318.18  120635.57 -4.1231818
 318000      .318  -150132.21 285277.639 -104.80674 285382.446 -435409.85   150027.4  -3.493558
 318500     .3185  -176825.14 302090.258 -83.997908 302174.256  -478915.4  176741.14 -2.7999303
 319000      .319  -200370.32 313705.904 -61.138956 313767.043 -514076.22 200309.176 -2.0379652
 319500     .3195  -220386.39 319946.957 -36.306785 319983.264 -540333.34  220350.08 -1.2102262
 320000       .32   -236566.9 320739.607 -9.9581315 320749.565 -557306.51 236556.942 -.33193772
 320500     .3205  -248664.35 316099.474 17.1116005 316082.362 -564763.82 248681.459 .570386684
 321000      .321  -256473.93 306113.972 43.9880084 306069.984  -562587.9 256517.917 1.46626695
 321500     .3215  -259836.61 290937.383 70.0568538 290867.326 -550773.99 259906.662 2.33522846
 322000      .322  -258671.44 270809.835 95.1875198 270714.647 -529481.28 258766.629 3.17291733
 322500     .3225  -253004.75 246076.442 119.410158 245957.031 -499081.19 253124.159 3.98033861
 323000      .323  -242966.36 217180.925 142.536149 217038.389 -460147.28 243108.894 4.75120496
 323500     .3235  -228768.26 184644.587 164.065121 184480.522 -413412.85 228932.325 5.46883737
 324000      .324  -210680.88 149042.232 183.268782 148858.963 -359723.11 210864.152 6.10895941
 324500     .3245  -189012.64 110978.294 199.449448 110778.844 -299990.94 189212.093 6.64831493
 325000      .325  -164111.74 71079.3982 212.311812 70867.0864 -235191.14 164324.051 7.07706041
 325500     .3255   -136390.7  30006.961 222.010349 29784.9507 -166397.66  136612.71 7.40034495
 326000      .326  -106338.94  -11536.81 228.781898 -11765.592 -94802.134 106567.726 7.62606328
 326500     .3265  -74505.253 -52826.115 232.641622 -53058.756 -21679.138 74737.8942 7.75472075
 327000      .327  -41469.331 -93137.508 233.351285  -93370.86 51668.1772 41702.6826 7.77837618
 327500     .3275   -7813.663 -131776.42 230.534999 -132006.95 123962.752 8044.19798 7.68449998
 328000      .328  25896.8287   -168099. 223.956062 -168322.95 193995.825 -25672.873 7.46520205
 328500     .3285  59111.0867 -201514.82 213.813942 -201728.63 260625.906 -58897.273  7.1271314
 329000      .329  91272.2903 -231473.98 200.668989 -231674.65 322746.274 -91071.621 6.68896631
 329500     .3295  121815.753 -257465.33 185.064671 -257650.39 379281.082 -121630.69 6.16882235
 330000       .33  150191.572 -279033.63 167.300199 -279200.93 429225.201 -150024.27 5.57667329
 330500     .3305   175892.09 -295800.48 147.445922 -295947.93 471692.572 -175744.64 4.91486407
 331000      .331  198476.213 -307483.41 125.484633 -307608.89 505959.619 -198350.73 4.18282109
 331500     .3315  217581.549 -313906.32 101.588637  -314007.9 531487.864 -217479.96 3.38628788
 332000      .332  232912.569 -314990.04 76.3275147 -315066.37 547902.612 -232836.24 2.54425049
 332500     .3325  244219.984 -310732.85 50.4960355 -310783.35 554952.838 -244169.49 1.68320118
 333000      .333  251300.626 -301205.11 24.7579912 -301229.86 552505.732 -251275.87 .825266372
 333500     .3335  254015.993 -286558.52 -.50546479 -286558.01 540574.513  -254016.5 -.01684883
 334000      .334  252311.126 -267035.96 -25.141373 -267010.82 519347.085 -252336.27 -.83804575
 334500     .3345  246228.021 -242977.99  -49.06077 -242928.93 489206.009 -246277.08  -1.635359
 335000      .335  235903.926 -214818.43 -71.975704 -214746.45 450722.352  -235975.9 -2.3991901
 335500     .3355  221548.184 -183061.81  -93.28248 -182968.53 404609.998 -221641.47  -3.109416
 336000      .336  203417.797 -148257.45 -112.29723 -148145.15 351675.242 -203530.09 -3.7432411
 336500     .3365  181814.799 -110989.73 -128.56404 -110861.17 292804.534 -181943.36 -4.2854681
 337000      .337  157096.928 -71879.718 -141.93418 -71737.784 228976.647 -157238.86 -4.7311392
 337500     .3375   129686.15 -31585.861 -152.47716 -31433.384 161272.011 -129838.63  -5.082572
[...]
  Interval             voltage         voltage  in     Frequency    Cumulative               Per cent
    number         in per unit      physical units     (density)     frequency     .GE. current value
        36           1.8000000      7.71589269E+05             0             0          100.000000
        37           1.8500000      7.93022304E+05            95            95           68.333333
        38           1.9000000      8.14455340E+05            16           111           63.000000
        39           1.9500000      8.35888375E+05            17           128           57.333333
        40           2.0000000      8.57321410E+05             5           133           55.666667
        41           2.0500000      8.78754445E+05             8           141           53.000000
        42           2.1000000      9.00187481E+05            14           155           48.333333
        43           2.1500000      9.21620516E+05            20           175           41.666667
        44           2.2000000      9.43053551E+05            18           193           35.666667
        45           2.2500000      9.64486586E+05            20           213           29.000000
        46           2.3000000      9.85919622E+05            21           234           22.000000
        47           2.3500000      1.00735266E+06            13           247           17.666667
        48           2.4000000      1.02878569E+06            19           266           11.333333
        49           2.4500000      1.05021873E+06             8           274            8.666667
        50           2.5000000      1.07165176E+06            17           291            3.000000
        51           2.5500000      1.09308480E+06             6           297            1.000000
        52           2.6000000      1.11451783E+06             1           298             .666667
        53           2.6500000      1.13595087E+06             2           300             .000000
Summary of preceding table follows:       Grouped data     Ungrouped data
                                 Mean = 2.08316667E+00     2.07918969E+00
                             Variance = 5.62625139E-02     5.80923968E-02
                   Standard deviation = 2.37197205E-01     2.41023644E-01

6 ) -------------------------------------------------------------------------------------------------------------------------------
Statistical distribution of peak voltage  for branch  "X0003A"  to  "X0003B".   Base voltage  for per unit output = 4.28660705E+05
  Interval             voltage         voltage  in     Frequency    Cumulative               Per cent
    number         in per unit      physical units     (density)     frequency     .GE. current value
        41           2.0500000      8.78754445E+05             0             0          100.000000
        42           2.1000000      9.00187481E+05             1             1           99.666667
        43           2.1500000      9.21620516E+05             1             2           99.333333
        44           2.2000000      9.43053551E+05             0             2           99.333333
        45           2.2500000      9.64486586E+05             0             2           99.333333
        46           2.3000000      9.85919622E+05             1             3           99.000000
        47           2.3500000      1.00735266E+06             0             3           99.000000
        48           2.4000000      1.02878569E+06             0             3           99.000000
        49           2.4500000      1.05021873E+06             0             3           99.000000
        50           2.5000000      1.07165176E+06             0             3           99.000000
        51           2.5500000      1.09308480E+06             1             4           98.666667
        52           2.6000000      1.11451783E+06             1             5           98.333333
        53           2.6500000      1.13595087E+06             3             8           97.333333
        54           2.7000000      1.15738390E+06             4            12           96.000000
        55           2.7500000      1.17881694E+06             4            16           94.666667
        56           2.8000000      1.20024997E+06            14            30           90.000000
        57           2.8500000      1.22168301E+06             6            36           88.000000
        58           2.9000000      1.24311604E+06            11            47           84.333333
        59           2.9500000      1.26454908E+06            10            57           81.000000
        60           3.0000000      1.28598212E+06            17            74           75.333333
        61           3.0500000      1.30741515E+06            23            97           67.666667
        62           3.1000000      1.32884819E+06            31           128           57.333333
        63           3.1500000      1.35028122E+06            19           147           51.000000
        64           3.2000000      1.37171426E+06            26           173           42.333333
        65           3.2500000      1.39314729E+06            46           219           27.000000
        66           3.3000000      1.41458033E+06            49           268           10.666667
        67           3.3500000      1.43601336E+06            30           298             .666667
        68           3.4000000      1.45744640E+06             2           300             .000000
Summary of preceding table follows:       Grouped data     Ungrouped data
                                 Mean = 3.10150000E+00     3.10082060E+00
                             Variance = 4.18288462E-02     4.16698617E-02
                   Standard deviation = 2.04521016E-01     2.04131971E-01

7 ) -------------------------------------------------------------------------------------------------------------------------------
Statistical distribution of peak voltage  for branch  "X0003C"  to  "X0003A".   Base voltage  for per unit output = 4.28660705E+05
  Interval             voltage         voltage  in     Frequency    Cumulative               Per cent
    number         in per unit      physical units     (density)     frequency     .GE. current value
        36           1.8000000      7.71589269E+05             0             0          100.000000
        37           1.8500000      7.93022304E+05            10            10           96.666667
        38           1.9000000      8.14455340E+05            22            32           89.333333
        39           1.9500000      8.35888375E+05            30            62           79.333333
        40           2.0000000      8.57321410E+05            28            90           70.000000
        41           2.0500000      8.78754445E+05            35           125           58.333333
        42           2.1000000      9.00187481E+05            35           160           46.666667
        43           2.1500000      9.21620516E+05            40           200           33.333333
        44           2.2000000      9.43053551E+05            39           239           20.333333
        45           2.2500000      9.64486586E+05            41           280            6.666667
        46           2.3000000      9.85919622E+05            14           294            2.000000
        47           2.3500000      1.00735266E+06             3           297            1.000000
        48           2.4000000      1.02878569E+06             3           300             .000000
Summary of preceding table follows:       Grouped data     Ungrouped data
                                 Mean = 2.07683333E+00     2.07768336E+00
                             Variance = 1.66437848E-02     1.66012412E-02
                   Standard deviation = 1.29010793E-01     1.28845804E-01

8 ) -------------------------------------------------------------------------------------------------------------------------------
  SUMMARY   SUMMARY   SUMMARY   SUMMARY   SUMMARY   SUMMARY   SUMMARY   SUMMARY   SUMMARY   SUMMARY   SUMMARY   SUMMARY   SUMMARY
8 ) -------------------------------------------------------------------------------------------------------------------------------
A distribution of peak values among all output branches of the last data card that have the same base value follows.  This
statistical distribution is for the maximum of the peaks at all of these output branches having base  voltage  = 4.28660705E+05
  Interval             voltage         voltage  in     Frequency    Cumulative               Per cent
    number         in per unit      physical units     (density)     frequency     .GE. current value
        45           2.2500000      9.64486586E+05             0             0          100.000000
        46           2.3000000      9.85919622E+05             2             2           99.333333
        47           2.3500000      1.00735266E+06             1             3           99.000000
        48           2.4000000      1.02878569E+06             0             3           99.000000
        49           2.4500000      1.05021873E+06             0             3           99.000000
        50           2.5000000      1.07165176E+06             0             3           99.000000
        51           2.5500000      1.09308480E+06             1             4           98.666667
        52           2.6000000      1.11451783E+06             1             5           98.333333
        53           2.6500000      1.13595087E+06             3             8           97.333333
        54           2.7000000      1.15738390E+06             4            12           96.000000
        55           2.7500000      1.17881694E+06             4            16           94.666667
        56           2.8000000      1.20024997E+06            14            30           90.000000
        57           2.8500000      1.22168301E+06             6            36           88.000000
        58           2.9000000      1.24311604E+06            11            47           84.333333
        59           2.9500000      1.26454908E+06            10            57           81.000000
        60           3.0000000      1.28598212E+06            17            74           75.333333
        61           3.0500000      1.30741515E+06            23            97           67.666667
        62           3.1000000      1.32884819E+06            31           128           57.333333
        63           3.1500000      1.35028122E+06            19           147           51.000000
        64           3.2000000      1.37171426E+06            26           173           42.333333
        65           3.2500000      1.39314729E+06            46           219           27.000000
        66           3.3000000      1.41458033E+06            49           268           10.666667
        67           3.3500000      1.43601336E+06            30           298             .666667
        68           3.4000000      1.45744640E+06             2           300             .000000
Summary of preceding table follows:       Grouped data     Ungrouped data
                                 Mean = 3.10283333E+00     3.10228223E+00
                             Variance = 3.94150223E-02     3.90276674E-02
                   Standard deviation = 1.98532169E-01     1.97554214E-01

Blank card ends statistical tabulation requests.  |BLANK STATISTICS

                                      Sample curve symbols : "A", "B", and "C"
                                      Theoretical curve symbol : "*"
                                      Common curve symbol : "X"

        Switch  "X0001B"  to  "X0002B"            Switch  "X0001A"  to  "X0002A"            Switch  "X0001C"  to  "X0002C"
1.32420000E+00   switchings per column          1.32420000E+00   switchings per column     1.32420000E+00   switchings per column
              Columns                                     Columns                                     Columns
          5   10   15   20   25   30                5   10   15   20   25   30                5   10   15   20   25   30
     +----+----+----+----+----+----+           +----+----+----+----+----+----+           +----+----+----+----+----+----+
    X                                         X                                         X
    X                                         X                                         X
    X                                         X                                         X
    *A                                        X                                         X
    |*A                                       B*                                        |*C
    |A*                                       | X                                       | X
    |   X                                     | B *                                     |   *  C
    |       X                                 |       X                                 |     C *
    |      A    *                             |           *B                            |       C   *
    |                 * A                     |                 *    B                  |                 *  C
    |                       *     A           |                       X                 |                       *    C
    |                      A    *             |                           *   B         |                    C      *
    |  5.5000E-02                 *     A     |  5.5000E-02              B  *           |  5.5000E-02                 *     C
    |                           *      A      |                         B *             |                         C *
    |                  A    *                 |                       * B               |                       *     C
    |               A *                       |                B*                       |            C    *
    |         A *                             |          B*                             |        C  *
    |       * A                               |       X                                 |       *  C
    |  A*                                     |   X                                     | C *
    | *A                                      | X                                       | X
    |X                                        |X                                        |*C
    X                                         *B                                        X
    X                                         X                                         X
    X                                         X                                         *C
    X                                         X                                         X
   Time (scale = 3.33333333E-04  Sec/line)   Time (scale = 3.33333333E-04  Sec/line)   Time  (scale = 3.33333333E-04  Sec/line)

        Switch  "X0003C"  to  "XX0009"            Switch  "X0001B"  to  "X0002B"            Switch  "X0001A"  to  "X0002A"
1.32420000E+00   switchings per column          1.32420000E+00   switchings per column     1.32420000E+00   switchings per column
              Columns                                     Columns                                     Columns
          5   10   15   20   25   30                5   10   15   20   25   30                5   10   15   20   25   30
     +----+----+----+----+----+----+           +----+----+----+----+----+----+           +----+----+----+----+----+----+
    X                                         X                                         X
    X                                         X                                         X
    X                                         X                                         X
    *A                                        X                                         * C
    |X                                        |X                                        |*C
    | *A                                      | X                                       | X
    |  A*                                     |  B*                                     |   X
    |      A*                                 |    B  *                                 |     C *
    |         A *                             |           *  B                          |          C*
    |                 * A                     |                B*                       |                 X
    |                       *     A           |                       *    B            |                       X
    |                           *    A        |                           *B            |                           * C
    |  1.0000E-02                 *A          |  7.0000E-01                 *   B       |  7.0000E-01                C*
    |                           *   A         |                           *  B          |                           *  C
    |                A      *                 |                   B   *                 |                    C  *
    |                 * A                     |            B    *                       |                 X
    |           X                             |         B *                             |           * C
    |     A *                                 |     B *                                 |       X
    A   *                                     |   *  B                                  |   *C
    A *                                       | X                                       C *
    A*                                        |*B                                       |*C
    *A                                        *B                                        X
    X                                         X                                         X
    X                                         *B                                        X
    X                                         X                                         X
   Time (scale = 3.33333333E-04  Sec/line)   Time (scale = 3.33333333E-04  Sec/line)   Time  (scale = 3.33333333E-04  Sec/line)

   Switch  "X0001C"  to  "X0002C"
     1.32420000E+00   switchings per column
              Columns
          5   10   15   20   25   30
     +----+----+----+----+----+----+
    X
    X
    *A
    X
    |X
    |A*
    | A *
    |       X
    |           *    A
    |          A      *
    |                       *    A
    |                         A *
    |  7.0000E-01                A*
    |                          A*
    |                       X
    |                 *  A
    |           *       A
    |    A  *
    |   X
    A *
    A*
    *A
    X
    *A
    X
   Time (scale = 3.33333333E-04  Sec/line)
 .... Questionable Kolmogorov-Smirnov test result = 4.79983461E-01
 .... Questionable Kolmogorov-Smirnov test result = 8.61125218E-01
 .... Questionable Kolmogorov-Smirnov test result = 6.22920778E-01
 .... Questionable Kolmogorov-Smirnov test result = 8.70941508E-02
 .... Questionable Kolmogorov-Smirnov test result = 7.08509700E-01
 .... Questionable Kolmogorov-Smirnov test result = 9.61921384E-01
 .... Questionable Kolmogorov-Smirnov test result = 7.92096056E-01

Actual List Sizes for the preceding solution follow.       11-Nov-18  11.00.00
   Size  1-10:    24    23    35     3   118     7    33  5310     0     0
   Size 11-20:     0     7 -9999 -9999 -9999     0     0     0    23  2972
   Size 21-30:    36   180  9388     0 -9999     9 -9999 -9999 -9999     0
Seconds for overlays  1-5  :     0.000     0.000     0.000  -- (CP: Wait; Real)
Seconds for overlays  6-11 :     0.000     0.000     0.000
Seconds for overlays 12-15 :     0.000     0.000     0.000
Seconds for time-step loop :     0.000     0.000     0.000
Seconds after DELTAT-loop  :     0.000     0.000     0.000
                               ---------------------------
                   Totals  :     0.000     0.000     0.000

