   ---   55   cards of disk file read into card cache cells  1   onward.
 <===> Done with  "/"-card sorting by data class.    Remember that the source file appears different from interpreted input data.
Alternative Transients Program (ATP),  F77 GNU Linux or DOS.  All rights reserved by Can/Am user group of Portland, Oregon, USA.
 Date (dd-mth-yy) and time of day (hh.mm.ss) = 11-Nov-18  11.00.00    Name of disk plot file, if any, is
Consult the 860-page ATP Rule Book of the Can/Am EMTP User Group in Portland,  Oregon, USA.  Source code date is
Total size of LABCOM tables = 16446853 INTEGER words.  31 VARDIM  List Sizes follow:  6002  10K  192K  900  420K  1200  15K
  120K  2250  3800  720  2K  72800  510  800K  800  90  254  800K  100K  3K  15K  192K  120  45K  260K  600  210K  1100  19  200K
--------------------------------------------------+--------------------------------------------------------------------------------
Descriptive interpretation of input data cards.   |  Input data card images are shown below, all 80 columns, character by character
                                                  0         1         2         3         4         5         6         7         8
                                                  012345678901234567890123456789012345678901234567890123456789012345678901234567890
--------------------------------------------------+--------------------------------------------------------------------------------
Comment card.   KOMPAR > 0.                       |C data:Caso0_ReEnergizacao_OTIMIZADA_SemControle.atp
Marker card preceding new EMTP data case.         |BEGIN NEW DATA CASE
Comment card.   KOMPAR > 0.                       |C $DUMMY, XYZ000
Misc. data.     1.000E-06   1.000E+00   0.000E+00 |   1.E-6      1.
Misc. data.  500  1  0  0  1  0  0  1  300  0     |     500       1       0       0       1       0       0       1     300
Statistics data.      1    1    0    0    1    0  |       1       1       0       0       1      -1                               0
Series R-L-C.   5.000E+00  7.500E-02  0.000E+00   |  X0001AX0007A                5.   75.                                         0
Series R-L-C.   5.000E+00  7.500E-02  0.000E+00   |  X0001BX0007B                5.   75.                                         0
Series R-L-C.   5.000E+00  7.500E-02  0.000E+00   |  X0001CX0007C                5.   75.                                         0
Series R-L-C.   2.000E+02  0.000E+00  0.000E+00   |  X0007AX0001A              200.                                               0
Series R-L-C.   2.000E+02  0.000E+00  0.000E+00   |  X0007BX0001B              200.                                               0
Series R-L-C.   2.000E+02  0.000E+00  0.000E+00   |  X0007CX0001C              200.                                               0
Series R-L-C.   1.321E+00  1.401E+00  0.000E+00   |  X0003BXX0008            1.32071401.3                                         0
Series R-L-C.   1.321E+00  1.401E+00  0.000E+00   |  X0003AXX0008            1.32071401.3                                         0
Series R-L-C.   1.321E+00  1.401E+00  0.000E+00   |  X0003CXX0008            1.32071401.3                                         0
Series R-L-C.   3.900E-01  4.138E-01  0.000E+00   |  XX0008                     .39 413.8                                         0
Series R-L-C.   3.000E+01  0.000E+00  0.000E+00   |  XX0009                     30.                                               0
Series R-L-C.   5.000E+02  0.000E+00  0.000E+00   |  X0002AX0010A              500.                                               0
Series R-L-C.   5.000E+02  0.000E+00  0.000E+00   |  X0002BX0010B              500.                                               0
Series R-L-C.   5.000E+02  0.000E+00  0.000E+00   |  X0002CX0010C              500.                                               0
Dynamic $INCLUDE uses fixed RAM cache to delay.   |$INSERT, C:\SimulacaoATP\EXT1.pch
J. Marti line, mode  1   parameters begin.        |-1X0010AX0005C                2.  0.00              -2 3
J. Marti line, mode  2   parameters begin.        |-2X0010BX0005A                2.  0.00              -2 3
J. Marti line, mode  3   parameters begin.        |-3X0010CX0005B                2.  0.00              -2 3
TR(1,1 )...  0.671-0.707-0.324                    |  0.67102882 -0.70710678 -0.32400803
TI(1,1 )...  0.000 0.000 0.003                    |  0.00000000  0.00000000  0.00341127
TR(2,1 )...  0.315 0.000 0.889                    |  0.31480489  0.00000000  0.88876566
TI(2,1 )... -0.018 0.000 0.010                    | -0.01839933  0.00000000  0.01048452
TR(3,1 )...  0.671 0.707-0.324                    |  0.67102882  0.70710678 -0.32400803
TI(3,1 )...  0.000 0.000 0.003                    |  0.00000000  0.00000000  0.00341127
Dynamic $INCLUDE uses fixed RAM cache to delay.   |$INSERT, C:\SimulacaoATP\OTIM2.pch
J. Marti line, mode  1   parameters begin.        |-1X0004AX0006C                2.  0.00              -2 3
J. Marti line, mode  2   parameters begin.        |-2X0004BX0006A                2.  0.00              -2 3
J. Marti line, mode  3   parameters begin.        |-3X0004CX0006B                2.  0.00              -2 3
TR(1,1 )...  0.671-0.707-0.324                    |  0.67102882 -0.70710678 -0.32400803
TI(1,1 )...  0.000 0.000 0.003                    |  0.00000000  0.00000000  0.00341127
TR(2,1 )...  0.315 0.000 0.889                    |  0.31480489  0.00000000  0.88876566
TI(2,1 )... -0.018 0.000 0.010                    | -0.01839933  0.00000000  0.01048452
TR(3,1 )...  0.671 0.707-0.324                    |  0.67102882  0.70710678 -0.32400803
TI(3,1 )...  0.000 0.000 0.003                    |  0.00000000  0.00000000  0.00341127
Dynamic $INCLUDE uses fixed RAM cache to delay.   |$INSERT, C:\SimulacaoATP\OTIM3.pch
J. Marti line, mode  1   parameters begin.        |-1X0005AX0004C                2.  0.00              -2 3
J. Marti line, mode  2   parameters begin.        |-2X0005BX0004A                2.  0.00              -2 3
J. Marti line, mode  3   parameters begin.        |-3X0005CX0004B                2.  0.00              -2 3
TR(1,1 )...  0.671-0.707-0.324                    |  0.67102882 -0.70710678 -0.32400803
TI(1,1 )...  0.000 0.000 0.003                    |  0.00000000  0.00000000  0.00341127
TR(2,1 )...  0.315 0.000 0.889                    |  0.31480489  0.00000000  0.88876566
TI(2,1 )... -0.018 0.000 0.010                    | -0.01839933  0.00000000  0.01048452
TR(3,1 )...  0.671 0.707-0.324                    |  0.67102882  0.70710678 -0.32400803
TI(3,1 )...  0.000 0.000 0.003                    |  0.00000000  0.00000000  0.00341127
Dynamic $INCLUDE uses fixed RAM cache to delay.   |$INSERT, C:\SimulacaoATP\EXT4.pch
J. Marti line, mode  1   parameters begin.        |-1X0006AX0003A                2.  0.00              -2 3
J. Marti line, mode  2   parameters begin.        |-2X0006BX0003B                2.  0.00              -2 3
J. Marti line, mode  3   parameters begin.        |-3X0006CX0003C                2.  0.00              -2 3
TR(1,1 )...  0.671-0.707-0.324                    |  0.67102882 -0.70710678 -0.32400803
TI(1,1 )...  0.000 0.000 0.003                    |  0.00000000  0.00000000  0.00341127
TR(2,1 )...  0.315 0.000 0.889                    |  0.31480489  0.00000000  0.88876566
TI(2,1 )... -0.018 0.000 0.010                    | -0.01839933  0.00000000  0.01048452
TR(3,1 )...  0.671 0.707-0.324                    |  0.67102882  0.70710678 -0.32400803
TI(3,1 )...  0.000 0.000 0.003                    |  0.00000000  0.00000000  0.00341127
Blank card ending branches.  IBR, NTOT = 26  27   |BLANK BRANCH
Switch.   5.50E-02  1.00E-03  0.00E+00  3.33E+03  |  X0001BX0002B      .055      .001               3333.STATISTICS               0
Switch.   5.50E-02  1.00E-03  0.00E+00  3.33E+03  |  X0001AX0002A      .055      .001               3333.STATISTICS               0
Switch.   5.50E-02  1.00E-03  0.00E+00  3.33E+03  |  X0001CX0002C      .055      .001               3333.STATISTICS               0
Switch.   1.00E-02  1.00E-03  0.00E+00  0.00E+00  |  X0003CXX0009       .01      .001                    STATISTICS               1
Switch.   7.00E-01  1.00E-03  0.00E+00  0.00E+00  |  X0001BX0002B        .7      .001                    STATISTICS               0
Switch.   7.00E-01  1.00E-03  0.00E+00  0.00E+00  |  X0001AX0002A        .7      .001                    STATISTICS               0
Switch.   7.00E-01  1.00E-03  0.00E+00  0.00E+00  |  X0001CX0002C        .7      .001                    STATISTICS               0
Switch.   0.00E+00  6.98E-01  0.00E+00  0.00E+00  |  X0002AX0010A                .698                                             0
Switch.   0.00E+00  6.98E-01  0.00E+00  0.00E+00  |  X0002BX0010B                .698                                             0
Switch.   0.00E+00  6.98E-01  0.00E+00  0.00E+00  |  X0002CX0010C                .698                                             0
Switch.   7.10E-01  0.00E+00  0.00E+00  0.00E+00  |  X0002AX0010A       .71                                                       0
Switch.   7.10E-01  0.00E+00  0.00E+00  0.00E+00  |  X0002BX0010B       .71                                                       0
Switch.   7.10E-01  0.00E+00  0.00E+00  0.00E+00  |  X0002CX0010C       .71                                                       0
Blank card ending switches.   KSWTCH = 13.        |BLANK SWITCH
Source.   4.29E+05  6.00E+01  0.00E+00 -1.00E+00  |14X0007A  428660.705       60.                                     -1.      100.
Source.   4.29E+05  6.00E+01 -1.20E+02 -1.00E+00  |14X0007B  428660.705       60.     -120.                           -1.      100.
Source.   4.29E+05  6.00E+01 -2.40E+02 -1.00E+00  |14X0007C  428660.705       60.     -240.                           -1.      100.
Blank card ends electric sources.  KCONST = 3     |BLANK SOURCE

     Total network loss  P-loss  by summing injections =   2.745162347726E+08

Card of names for time-step loop output.          |  X0003AX0003BX0003C
Output voltage differences for pairs of A6 names  |-5X0003BX0003CX0003AX0003BX0003CX0003A
Blank card ending requests for output variables.  |BLANK OUTPUT

Column headings for the  7   EMTP output variables follow.  These are divided among the 5 possible classes as follows ....
  First  6     output variables are electric-network voltage differences (upper voltage minus lower voltage);
  Next   1     output variables are branch currents (flowing from the upper node to the lower node);
   Step      Time      X0003A     X0003B     X0003C     X0003B     X0003A     X0003C     X0003C
                                                        X0003C     X0003B     X0003A     XX0009
 ***      Phasor I(0) =  1.5643271E+02                     Switch  "X0001B"  to  "X0002B"  closed in the steady-state.
 ***      Phasor I(0) =  4.2879505E+02                     Switch  "X0001A"  to  "X0002A"  closed in the steady-state.
 ***      Phasor I(0) = -5.8189214E+02                     Switch  "X0001C"  to  "X0002C"  closed in the steady-state.
 ***                    Switch  "X0002A"  to  "X0010A"  closed  after  0.00000000E+00  sec.
 ***                    Switch  "X0002B"  to  "X0010B"  closed  after  0.00000000E+00  sec.
 ***                    Switch  "X0002C"  to  "X0010C"  closed  after  0.00000000E+00  sec.
      0       0.0  223415.284  -309506.2 85427.7821 -394933.99 532921.488  -137987.5        0.0
    500     .5E-3  261343.649 -288003.64 27144.8957 -315148.53 549347.287 -234198.75        0.0
   1000     .1E-2  291236.014 -256808.79 -32556.795 -224251.99 548044.801 -323792.81        0.0
   1500     .0015  309872.601 -216671.14 -91014.419 -125656.72 526543.739 -400887.02        0.0
   2000      .002  525956.397 -69270.579 -522067.08 452796.498 595226.976 -.104802E7        0.0
   2500     .0025  514898.675 96757.7979 -629551.48 726309.279 418140.877 -.114445E7        0.0
   3000      .003  446645.239 229846.152 -696570.45 926416.602 216799.086 -.114322E7        0.0
   3500     .0035  345997.787 336077.512 -706167.61 .1042245E7 9920.27536 -.105217E7        0.0
   4000      .004  232128.766  442115.47  -658618.7 .1100734E7  -209986.7 -890747.47        0.0
   4500     .0045  110416.643 531677.388 -596951.25 .1128629E7 -421260.75 -707367.89        0.0
   5000      .005  -30464.753  590872.03  -515679.6 .1106552E7 -621336.78 -485214.84        0.0
   5500     .0055   -247411.2  595122.66 -316661.04 911783.698 -842533.86 -69249.836        0.0
   6000      .006  -421941.16 543104.818 -97542.045 640646.864 -965045.98 324399.115        0.0
   6500     .0065  -524573.81 472758.498 86144.7357 386613.763 -997332.31 610718.546        0.0
   7000      .007  -580174.47 391696.042 227333.965 164362.076 -971870.51 807508.438        0.0
   7500     .0075  -600089.57 305267.378 317722.826 -12455.449 -905356.95 917812.395        0.0
   8000      .008  -590828.75 208172.539 376659.141  -168486.6 -799001.29 967487.893        0.0
   8500     .0085  -558032.47 102939.337  417299.74  -314360.4  -660971.8 975332.208        0.0
   9000      .009  -476498.46 5482.06329 415207.314 -409725.25 -481980.52 891705.775        0.0
   9500     .0095  -362714.81 -66914.052 369507.802 -436421.85 -295800.76 732222.613        0.0
  10000       .01  -258068.36 -118666.38 317999.456 -436665.83 -139401.98 576067.817        0.0
 ***                                                             Close switch  "X0003C"  to  "XX0009"  after  1.00010000E-02  sec.
  10500     .0105  -252626.56 -241526.72 28512.4596 -270039.18 -11099.838 281139.021  950.41532
  11000      .011   -174990.6 -279568.16 27639.1671 -307207.33 104577.562 202629.766 921.305571
  11500     .0115  -113771.84 -322225.56 28818.4529 -351044.01 208453.723 142590.292 960.615098
  12000      .012  -68028.401 -368303.45 32558.5659 -400862.01 300275.047 100586.967 1085.28553
  12500     .0125  -28113.428 -397950.03 35624.1829 -433574.21 369836.601 63737.6106 1187.47276
  13000      .013  6051.66642 -428698.76 38598.3852 -467297.14 434750.423 32546.7188 1286.61284
  13500     .0135  252.053115 -468243.92 42087.9404 -510331.86 468495.973 41835.8873 1402.93135
  14000      .014  -27793.195 -569241.96 54095.2818 -623337.25 541448.769 81888.4765 1803.17606
  14500     .0145  71163.7268 -549073.02 63701.7075 -612774.73 620236.747 -7462.0193 2123.39025
  15000      .015  176789.457 -500167.35 66415.1451  -566582.5 676956.808 -110374.31 2213.83817
  15500     .0155  268873.816 -444756.39 61080.8663 -505837.26 713630.208 -207792.95 2036.02888
  16000      .016  361039.224 -375916.62 52092.2453 -428008.86 736955.841 -308946.98 1736.40818
  16500     .0165  454028.249   -285214. 41420.1622 -326634.17 739242.253 -412608.09 1380.67207
  17000      .017   542769.66 -170599.98  28781.562 -199381.54 713369.639  -513988.1   959.3854
  17500     .0175  613372.615 -36671.946 15049.9995 -51721.945 650044.561 -598322.62 501.666651
  18000      .018  645035.228  107830.43 5239.40368 102591.027 537204.798 -639795.82 174.646789
  18500     .0185  643335.155 251840.985 158.926757 251682.058  391494.17 -643176.23 5.29755856
  19000      .019  604476.259 377054.358 -6351.6702 383406.029 227421.901 -610827.93 -211.72234
  19500     .0195  532119.927 481892.383 -14619.742 496512.126  50227.544 -546739.67 -487.32475
  20000       .02  427707.508 561643.232 -23735.486 585378.718 -133935.72 -451442.99 -791.18287
  20500     .0205  299310.834 613009.947 -32771.052    645781. -313699.11 -332081.89 -1092.3684
  21000      .021   156832.33 634392.267 -41336.408 675728.676 -477559.94 -198168.74 -1377.8803
  21500     .0215  7186.77926 620249.738 -49007.788 669257.526 -613062.96 -56194.567 -1633.5929
  22000      .022  -142717.47  570011.05  -54123.98  624135.03 -712728.52 88593.4945 -1804.1327
  22500     .0225   -275272.3 500651.162 -56018.382 556669.544 -775923.46 219253.915 -1867.2794
  23000      .023  -380814.56 424416.893 -55014.468  479431.36 -805231.45 325800.091 -1833.8156
  23500     .0235  -459111.81 342872.704  -52067.98 394940.685 -801984.52 407043.832 -1735.5993
  24000      .024  -511897.84 256513.365 -47704.631 304217.996  -768411.2 464193.206 -1590.1544
  24500     .0245  -540614.09 167858.012 -42057.879 209915.891  -708472.1 498556.213 -1401.9293
  25000      .025  -546838.35 81197.2199 -35347.788 116545.008 -628035.57 511490.564 -1178.2596
  25500     .0255  -534545.55 -836.59351 -27837.654 27001.0604 -533708.95 506707.893  -927.9218
  26000      .026  -508671.36 -78534.093 -19206.809 -59327.284 -430137.27 489464.553 -640.22698
  26500     .0265  -472489.66 -153288.25 -9050.1475  -144238.1 -319201.41 463439.511 -301.67158
  27000      .027  -428551.26 -226620.84 2245.73339 -228866.57 -201930.42  430796.99 74.8577796
  27500     .0275  -377996.16 -298129.07 13859.2168 -311988.29 -79867.087 391855.375 461.973892
  28000      .028  -321019.95 -366088.55 25035.3497  -391123.9 45068.5957 346055.302 834.511657
  28500     .0285  -257245.01 -428113.67 35207.0331  -463320.7 170868.656 292452.047 1173.56777
  29000      .029  -185769.11  -481429.9  43892.258 -525322.15 295660.781 229661.373 1463.07527
  29500     .0295  -106641.49 -523421.83 50675.6694  -574097.5 416780.334 157317.163 1689.18898
  30000       .03  -21150.103  -551275.3 55392.7736 -606668.08   530125.2 76542.8769 1846.42579
  30500     .0305   69597.239 -560925.99 58101.3924 -619027.38  630523.23 -11495.847 1936.71308
  31000      .031  164383.234 -548083.18  58917.833 -607001.01 712466.412  -105465.4 1963.92777
  31500     .0315  260466.997 -510316.42 57897.0022 -568213.42 770783.414   -202570. 1929.90007
  32000      .032  353373.151 -447860.78 55046.0774 -502906.86  801233.93 -298327.07 1834.86925
  32500     .0325  437738.323 -363065.99 50406.3415 -413472.33 800804.315 -387331.98 1680.21138
  33000      .033   508355.99 -259644.87 44066.4997 -303711.37 768000.863 -464289.49 1468.88332
  33500     .0335  560661.205 -142540.24 36162.0363 -178702.28 703201.444 -524499.17 1205.40121
  34000      .034   590908.24 -17898.823 26951.2284 -44850.051 608807.063 -563957.01 898.374278
  34500     .0345  596463.416 107381.652 16838.5585 90543.0935 489081.764 -579624.86 561.285285
  35000      .035  576158.004 226364.355 6276.04493 220088.311 349793.649 -569881.96 209.201498
  35500     .0355  530595.507 332911.693 -4331.1737 337242.866 197683.815 -534926.68 -144.37246
  36000      .036   462136.51 422255.165 -14636.236 436891.401 39881.3454 -476772.75 -487.87454
  36500     .0365   374578.51 491171.314  -24324.68 515495.994  -116592.8 -398903.19 -810.82266
  37000      .037  272699.914 537952.658 -33108.975 571061.634 -265252.74 -305808.89 -1103.6325
  37500     .0375   161697.92 562212.705 -40739.808 602952.513 -400514.79 -202437.73 -1357.9936
  38000      .038  46750.7199 564663.622 -46995.734 611659.356  -517912.9 -93746.454 -1566.5245
  38500     .0385  -67158.062 546996.039 -51663.776 598659.815  -614154.1  15494.286 -1722.1259
  39000      .039  -175388.06 511684.409 -54542.203 566226.612 -687072.47 120845.853 -1818.0734
  39500     .0395  -273922.99 461562.664 -55469.259 517031.923 -735485.65 218453.731 -1848.9753
  40000       .04   -359639.1 399350.448   -54356.4 453706.848 -758989.55   305282.7   -1811.88
  40500     .0405  -430359.18 327393.522 -51205.726 378599.248  -757752.7 379153.449 -1706.8575
  41000      .041  -484689.22  247669.34  -46114.86   293784.2 -732358.56 438574.356  -1537.162
  41500     .0415  -521825.44 161910.966 -39274.133 201185.099 -683736.41 482551.311 -1309.1378
  42000      .042  -541445.23 71734.5636 -30949.622 102684.186 -613179.79 510495.609 -1031.6541
  % % % % % %   Suspended simulation;  plot data space exhausted;  SPY SPACE is required.   LIMBUF =  340000.
  % % % % % %   Suspended simulation;  plot data space exhausted;  SPY SPACE is required.   LIMBUF =  340000.
  +++  Time-sharing disabled.   Send  user-keyed interrupt to silence alarm.
   Current values.  INDBUF  INDBEG  LIMBUF  MFLUSH  NUMDCD  KCARD1  KCARD2
                    339994      50  340000    1000      46       1      50
Plot timespan now in memory (in sec) = 0.00000000E+00   4.24930000E-02
   ++++  Begin plot-data copy from memory to disk.   MFLUSH, INDBUF, N4, Tbeg,  Tend = 1001  339994       1  -1.00000E+00
1.00000E+19
  42500     .0425  -543641.03 -21235.239 -21457.125 221.886939 -522405.79 522183.902 -715.23751
  43000      .043  -528839.63 -115211.56 -11143.226 -104068.33 -413628.07 517696.402 -371.44086
  43500     .0435   -497707.9 -208065.72 -377.70418 -207688.01 -289642.18 497330.193 -12.590139
  44000      .044  -451099.53  -297192.7 10452.8537 -307645.55 -153906.83  461552.38 348.428456
  44500     .0445   -390082.9 -379502.47 20957.3934 -400459.86  -10580.43 411040.295  698.57978
  45000      .045  -316029.83 -451560.95 30755.2596 -482316.21 135531.119 346785.087 1025.17532
  45500     .0455  -230721.46 -509853.99 39489.0402 -549343.03 279132.531 270210.503 1316.30134
  46000      .046   -136426.1 -551109.87 46837.4314  -597947.3 414683.768  183263.53 1561.24771
  46500     .0465  -35913.011 -572607.61 52530.6664 -625138.27 536694.595 88443.6772 1751.02221
  47000      .047  67600.1428 -572438.77 56365.7687 -628804.54 640038.912 -11234.374 1878.85896
  47500     .0475  170542.513 -549724.49  58216.342 -607940.83    720267. -112326.17 1940.54473
  48000      .048  269114.646 -504776.96 58034.5888 -562811.55 773891.606 -211080.06 1934.48629
  48500     .0485  359452.379 -439163.15 55847.6387 -495010.79 798615.533 -303604.74 1861.58796
  49000      .049  437834.881 -355633.13 51750.9924 -407384.12 793468.012 -386083.89 1725.03308
  49500     .0495   500912.23 -257920.72 45900.6827 -303821.41 758832.953 -455011.55 1530.02276
  50000       .05  545914.268 -150462.41 38505.7274 -188968.13 696376.676 -507408.54 1283.52425
  50500     .0505  570815.493 -38082.719 29821.8972 -67904.616 608898.212  -540993.6  994.06324
  51000      .051  574449.801 74322.8749 20145.8521 54177.0228 500126.926 -554303.95 671.528404
  51500     .0515  556576.469 182088.319  9807.7611 172280.558 374488.149 -546768.71  326.92537
  52000      .052  517894.531 281037.992 -838.26403 281876.256 236856.539 -518732.79 -27.942134
  52500     .0525  460000.118 367680.502 -11425.213 379105.715  92319.616 -471425.33 -380.84045
  53000      .053     385288. 439314.867  -21585.11 460899.977 -54026.867 -406873.11 -719.50365
  53500     .0535  296807.727 494047.623 -30961.791 525009.414  -197239.9 -327769.52 -1032.0597
  54000      .054  198090.995 530739.195 -39224.134  569963.33  -332648.2 -237315.13 -1307.4711
  54500     .0545  92969.2411 548909.051 -46078.534 594987.585 -455939.81 -139047.78 -1535.9511
  55000      .055  -14602.633  548627.88  -51279.54  599907.42 -563230.51 -36676.907  -1709.318
  55500     .0555  -120707.38 530416.224 -54638.377 585054.601 -651123.61 66069.0043 -1821.2792
  56000      .056  -221607.61  495161.48 -56029.681 551191.161 -716769.09 165577.928  -1867.656
  56500     .0565  -313866.12 444062.753 -55396.628 499459.382 -757928.87 258469.487 -1846.5543
 ***                                                             Open  switch  "X0001B"  to  "X0002B"  after  5.67130000E-02  sec.
  57000      .057  -394441.05 378610.264 -52754.204 431364.468 -773051.32 341686.847 -1758.4735
  57500     .0575  -460755.26 300597.435 -48190.152 348787.586 -761352.69 412565.108 -1606.3384
  58000      .058  -510744.04 212152.231 -41863.136 254015.368 -722896.27 468880.904 -1395.4379
  58500     .0585  -545235.97 123170.593 -34201.589 157372.183 -668406.56  511034.38  -1140.053
  59000      .059  -566380.67 58883.8253 -26330.503 85214.3279 -625264.49 540050.164 -877.68342
 ***                                                             Open  switch  "X0001A"  to  "X0002A"  after  5.94910000E-02  sec.
  59500     .0595   -558988.9 2598.61306 -16319.679 18918.2923 -561587.51 542669.217 -543.98931
  60000       .06  -532869.41 -57433.736 -5687.8218 -51745.914 -475435.68 527181.592 -189.59406
 ***                                                             Open  switch  "X0001C"  to  "X0002C"  after  6.00580000E-02  sec.
  60500     .0605  -490201.01 -121391.37 5162.39367 -126553.76 -368809.64 495363.405 172.079789
  61000      .061  -430919.17 -187526.09 15839.9269 -203366.02 -243393.08 446759.094 527.997562
  61500     .0615  -378868.21 -251484.16 27137.1887 -278621.35 -127384.05 406005.397 904.572956
  62000      .062  -316459.63 -290953.37 34033.4358 -324986.81 -25506.259 350493.069 1134.44786
  62500     .0625  -257823.38 -318534.84 32062.8561 -350597.69 60711.4564 289886.236 1068.76187
  63000      .063  -198552.46 -355332.01 26207.0051 -381539.02 156779.558  224759.46 873.566837
  63500     .0635  -124213.43 -387455.63  20193.679 -407649.31   263242.2 144407.106 673.122635
  64000      .064  -38203.695   -413605. 13439.1472 -427044.15 375401.304 51642.8424 447.971573
  64500     .0645  52128.2511  -437739.4 6009.52174 -443748.92 489867.649 -46118.729 200.317391
  65000      .065  126444.517 -451565.71 -1247.8033  -450317.9 578010.224 -127692.32 -41.593444
  65500     .0655  184634.123 -455362.58 -7967.5956 -447394.98 639996.702 -192601.72 -265.58652
  66000      .066    205490.2 -476783.35 -11581.473 -465201.88 682273.551 -217071.67 -386.04911
  66500     .0665   246987.58 -482671.48 -11673.818 -470997.66 729659.058  -258661.4 -389.12726
  67000      .067  303458.601 -472802.05  -10277.01 -462525.04 776260.654 -313735.61 -342.56699
  67500     .0675    362111.9 -454971.28 -7834.8835  -447136.4 817083.185 -369946.78 -261.16278
  68000      .068  413633.491 -433942.55  -4106.688 -429835.86 847576.036 -417740.18  -136.8896
  68500     .0685  447497.995 -396317.63 770.031006 -397087.66 843815.624 -446727.96 25.6677002
  69000      .069   461673.88 -344109.49 6030.92448 -350140.41 805783.371 -455642.96 201.030816
  69500     .0695  468943.943 -289670.01 11314.9784 -300984.99 758613.953 -457628.96 377.165947
  70000       .07  486823.101 -229197.27 13322.8676 -242520.14 716020.376 -473500.23 444.095587
  70500     .0705  494944.378 -173946.35 12768.2976 -186714.65 668890.726 -482176.08  425.60992
  71000      .071   499367.58 -117501.17  11707.391 -129208.57 616868.755 -487660.19 390.246367
  71500     .0715  497230.408 -54820.277 10354.6975 -65174.974 552050.685 -486875.71 345.156582
  72000      .072   477934.91 18864.0218 8121.22506 10742.7968 459070.888 -469813.68 270.707502
  72500     .0725  437807.756 96170.7466  5171.7177 90999.0289  341637.01 -432636.04  172.39059
  73000      .073  396313.763 166121.863 1790.83453 164331.028   230191.9 -394522.93 59.6944843
  73500     .0735   345079.76 216585.959 -1113.6426 217699.601 128493.801  -346193.4 -37.121419
  74000      .074   290116.91 257599.804 -2581.1093 260180.913 32517.1067 -292698.02 -86.036976
  74500     .0745  240009.204 297937.642 -3128.0801 301065.722 -57928.437 -243137.28 -104.26934
  75000      .075  185293.848 340662.167 -3125.3692 343787.536 -155368.32 -188419.22 -104.17897
  75500     .0755  117156.315 383797.104 -2443.2552 386240.359 -266640.79 -119599.57 -81.441841
  76000      .076  39662.1872 426070.401 -973.81053 427044.212 -386408.21 -40635.998 -32.460351
  76500     .0765  -29511.629 455728.763  984.25325  454744.51 -485240.39 30495.8823 32.8084417
  77000      .077  -94807.884 469065.761 3558.15835 465507.603 -563873.65 98366.0426 118.605278
  77500     .0775  -149710.62 474948.874 5566.17018 469382.704  -624659.5 155276.793 185.539006
  78000      .078  -201273.05 470043.091   6448.872 463594.219 -671316.14 207721.925   214.9624
  78500     .0785  -256067.17  462660.09 6864.71888 455795.371 -718727.26 262931.891 228.823963
  79000      .079  -312895.38 456482.514 7136.81489 449345.699  -769377.9 320032.196  237.89383
  79500     .0795  -364578.16  448095.39 6853.12855 441242.262 -812673.55 371431.291 228.437618
  80000       .08   -402884.9 425185.975 5994.47023 419191.505 -828070.88 408879.373 199.815674
  80500     .0805  -429592.92 389066.187 4885.71173 384180.475 -818659.11 434478.636 162.857058
  81000      .081  -448118.71 341021.123 3588.94588 337432.177 -789139.83 451707.653 119.631529
  81500     .0815  -462554.88 282810.315 2646.14513 280164.169 -745365.19 465201.025 88.2048378
  82000      .082  -474938.82 227593.422 2078.41656 225515.006 -702532.24 477017.233  69.280552
  82500     .0825  -483666.91 177581.035 1557.89043 176023.145 -661247.95 485224.803 51.9296811
  83000      .083   -482884.1 125843.336 1113.67876 124729.657 -608727.44 483997.781 37.1226252
  83500     .0835  -467598.52 65299.3799 1127.85731 64171.5225  -532897.9  468726.38 37.5952436
  84000      .084  -438989.37 246.341833 1616.28528 -1369.9435 -439235.71 440605.654 53.8761761
  84500     .0845  -402784.05 -68469.433  2517.3968  -70986.83 -334314.62 405301.446 83.9132265
  % % % % % %   Suspended simulation;  plot data space exhausted;  SPY SPACE is required.   LIMBUF =  340000.
  % % % % % %   Suspended simulation;  plot data space exhausted;  SPY SPACE is required.   LIMBUF =  340000.
  +++  Time-sharing disabled.   Send  user-keyed interrupt to silence alarm.
   Current values.  INDBUF  INDBEG  LIMBUF  MFLUSH  NUMDCD  KCARD1  KCARD2
                    339994      50  340000    1001      46       1      50
Plot timespan now in memory (in sec) = 4.24919985E-02   8.49850000E-02
   ++++  Begin plot-data copy from memory to disk.   MFLUSH, INDBUF, N4, Tbeg,  Tend = 1002  339994       1  -1.00000E+00
1.00000E+19
  85000      .085  -360452.61 -135068.12 3554.25132 -138622.37 -225384.49 364006.858 118.475044
  85500     .0855   -319160.2 -193264.96 4237.43923  -197502.4 -125895.24 323397.642 141.247974
  86000      .086  -278587.45 -242248.84 4494.75643  -246743.6 -36338.614 283082.211 149.825214
  86500     .0865  -229316.85 -288194.35 4617.21081 -292811.56 58877.4922 233934.065 153.907027
  87000      .087  -168191.81 -332765.18 4676.24585 -337441.42 164573.366 172868.059 155.874862
  87500     .0875   -100230.7 -374139.55 4529.88438 -378669.43 273908.847 104760.584 150.996146
  88000      .088  -30978.253 -411723.49 4251.65824 -415975.14 380745.233 35229.9115 141.721941
  88500     .0885  35189.6748  -441254.2 3816.79616   -445071. 476443.879 -31372.879 127.226539
  89000      .089  91780.1831 -459896.53 3318.49315 -463215.02  551676.71  -88461.69 110.616438
  89500     .0895  142059.084 -466711.89 2764.37379 -469476.27 608770.976 -139294.71 92.1457929
  90000       .09  196122.765 -467703.92 2167.00082 -469870.92 663826.685 -193955.76 72.2333606
  90500     .0905  253269.259 -464223.99 1614.90454 -465838.89 717493.245 -251654.35 53.8301512
  91000      .091  307894.495  -455440.3  1283.5004  -456723.8 763334.797 -306610.99 42.7833468
  91500     .0915  357120.919 -439978.74 1254.14739 -441232.89 797099.658 -355866.77  41.804913
  92000      .092  395116.432  -414718.6 1461.45746 -416180.06 809835.036 -393654.97 48.7152488
  92500     .0925  419840.505 -378255.61 1778.05733 -380033.67 798096.116 -418062.45 59.2685778
  93000      .093  435279.039 -332981.83 1949.68013 -334931.51 768260.869 -433329.36 64.9893376
  93500     .0935  449189.385 -286085.48 1959.75557 -288045.23 735274.862 -447229.63 65.3251858
  94000      .094  460304.882 -237727.47 1999.62519 -239727.09 698032.351 -458305.26 66.6541729
  94500     .0945   465683.96 -186121.22 2136.13599 -188257.35 651805.177 -463547.82  71.204533
  95000      .095  463147.084 -130857.61 2269.76119 -133127.37 594004.696 -460877.32 75.6587063
  95500     .0955  446912.276 -70254.806 2355.48329 -72610.289 517167.082 -444556.79 78.5161098
  96000      .096  417794.288  -4771.404 2302.82731 -7074.2313 422565.692 -415491.46 76.7609102
  96500     .0965  380923.802 60412.7645 2087.46083 58325.3037 320511.038 -378836.34 69.5820278
  97000      .097  343059.878 119783.936   1831.712 117952.224 223275.942 -341228.17 61.0570667
  97500     .0975  303591.058 174495.434 1624.73317 172870.701 129095.623 -301966.32 54.1577723
  98000      .098  260475.421 226088.279 1449.97555 224638.303 34387.1419 -259025.45 48.3325183
  98500     .0985  211618.662 274640.832 1350.59431 273290.237  -63022.17 -210268.07 45.0198102
  99000      .099  153737.958  322141.76 1377.34822 320764.412  -168403.8 -152360.61 45.9116075
  99500     .0995  89210.3534 367447.845 1435.78728 366012.058 -278237.49 -87774.566 47.8595761
 100000       0.1  25014.1309 404935.042 1504.76534 403430.276 -379920.91 -23509.366 50.1588448
 100500     .1005  -34077.494 431213.757 1603.18601 429610.571 -465291.25 35680.6795 53.4395338
 101000      .101   -89453.13 448056.307 1724.04025 446332.267 -537509.44 91177.1702 57.4680084
 101500     .1015  -142887.11 457180.953 1874.84749 455306.106 -600068.07 144761.962 62.4949163
 102000      .102  -195757.86 460440.633 2092.88887 458347.744  -656198.5 197850.753 69.7629623
 102500     .1025   -249457.2 460115.504 2318.54007 457796.964  -709572.7 251775.735 77.2846689
 103000      .103  -301639.31 454599.917 2443.07084 452156.847 -756239.23 304082.383 81.4356946
 103500     .1035  -345229.53 438897.804  2476.9824 436420.821 -784127.34 347706.517 82.5660801
 104000      .104  -378300.45 411704.487 2485.48895 409218.998 -790004.94 380785.941 82.8496315
 104500     .1045  -403098.49 375808.699 2500.91075 373307.788 -778907.19 405599.398 83.3636917
 105000      .105  -421321.98 333732.493 2527.37429 331205.119 -755054.47 423849.351 84.2458097
 105500     .1055  -434941.67 288671.284 2546.86614 286124.418 -723612.96 437488.539 84.8955379
 106000      .106  -444923.21 242447.088  2523.3943 239923.694 -687370.29   447446.6 84.1131433
 106500     .1065  -448862.83 193703.603 2448.13491 191255.468 -642566.43 451310.965  81.604497
 107000      .107  -440970.19 138680.279 2369.49376 136310.785 -579650.47 443339.684 78.9831255
 107500     .1075  -421795.68 77948.9369 2349.21163 75599.7253 -499744.61 424144.887 78.3070542
 108000      .108  -394547.86 14886.6369 2379.26035 12507.3765  -409434.5 396927.121 79.3086784
 108500     .1085  -361566.09 -47910.107 2426.92858 -50337.036 -313655.98 363993.017 80.8976193
 109000      .109  -325875.59 -107085.87 2467.17151 -109553.04 -218789.72 328342.762 82.2390502
 109500     .1095  -287990.57 -161245.11 2474.15304 -163719.26 -126745.46  290464.72 82.4717681
 110000       .11  -245124.58 -211923.31 2428.43033 -214351.74 -33201.265 247553.008 80.9476776
 110500     .1105  -193757.42 -262119.66 2358.95405 -264478.61 68362.2412 196116.373 78.6318016
 111000      .111  -136253.11 -310478.48 2314.45295 -312792.93 174225.372 138567.562 77.1484316
 111500     .1115  -76490.621 -354125.68 2286.49321 -356412.17 277635.054 78777.1147 76.2164404
 112000      .112  -17161.982 -391019.78   2257.787 -393277.57 373857.797 19419.7692 75.2595668
 112500     .1125  38649.5382 -418557.91 2209.09588 -420767.01  457207.45 -36440.442 73.6365294
 113000      .113  91056.3395   -436420. 2095.48066 -438515.48 527476.341 -88960.859 69.8493553
 113500     .1135   143179.81 -447263.67 1911.20113 -449174.87 590443.484 -141268.61 63.7067043
 114000      .114  196790.331 -453721.99  1727.8637 -455449.85 650512.316 -195062.47 57.5954566
 114500     .1145  249000.091 -454421.43 1602.42703 -456023.85 703421.518 -247397.66 53.4142344
 115000      .115  296282.598 -447570.35 1527.21622 -449097.57 743852.949 -294755.38 50.9072074
 115500     .1155  336317.236 -432029.46 1479.73342  -433509.2 768346.699  -334837.5 49.3244474
 116000      .116  367042.646 -406680.84 1428.30439 -408109.14 773723.486 -365614.34 47.6101465
 116500     .1165  389503.615 -372670.47 1325.58424 -373996.05 762174.085 -388178.03 44.1861412
 117000      .117  407521.608 -333747.42 1189.44636 -334936.87 741269.031 -406332.16 39.6482119
 117500     .1175   422217.16 -292063.78 1088.33024 -293152.11 714280.936 -421128.83 36.2776746
 118000      .118  431052.184 -246641.04 1045.09926 -247686.13  677693.22 -430007.08 34.8366419
 118500     .1185  431584.921 -196817.17 1042.27045 -197859.44 628402.088 -430542.65 34.7423484
 119000      .119  422331.579 -142241.78 1057.17652 -143298.96 564573.358  -421274.4 35.2392173
 119500     .1195   402882.94 -83099.758 1058.20377 -84157.962 485982.698 -401824.74  35.273459
 120000       .12  375552.648 -21607.658 1009.51792 -22617.176 397160.306 -374543.13 33.6505973
 120500     .1205  344759.437 38216.7759 935.278576 37281.4973 306542.662 -343824.16 31.1759525
 121000      .121   311323.02 94917.4608 888.962889  94028.498 216405.559 -310434.06 29.6320963
 121500     .1215  273315.648 149348.527 886.926593 148461.601 123967.121 -272428.72 29.5642198
 122000      .122  229577.303 201795.193 922.842199 200872.351 27782.1104 -228654.46 30.7614066
 122500     .1225  179497.372 252505.674 979.257409 251526.417 -73008.302 -178518.11 32.6419136
 123000      .123  124097.192 300787.903  1022.2629  299765.64 -176690.71 -123074.93 34.0754299
 123500     .1235  66668.0391 344175.109 1026.68673 343148.422 -277507.07 -65641.352 34.2228909
 124000      .124  11405.4228  379389.58 1021.14749 378368.433 -367984.16 -10384.275 34.0382498
 124500     .1245  -41391.947 406189.332 1050.99174  405138.34 -447581.28 42442.9385  35.033058
 125000      .125  -93246.906 425973.965 1123.39279 424850.572 -519220.87 94370.2991 37.4464262
 125500     .1255  -144643.25 439468.963 1223.30431 438245.658 -584112.21  145866.55 40.7768104
 126000      .126  -195853.79 447381.095  1328.4077 446052.687 -643234.89 197182.201 44.2802568
 126500     .1265  -245320.84 449255.712 1404.80365 447850.908 -694576.55 246725.639 46.8267882
 127000      .127  -289588.63  443087.38 1441.19517 441646.185 -732676.01 291029.823 48.0398392
  % % % % % %   Suspended simulation;  plot data space exhausted;  SPY SPACE is required.   LIMBUF =  340000.
  % % % % % %   Suspended simulation;  plot data space exhausted;  SPY SPACE is required.   LIMBUF =  340000.
  +++  Time-sharing disabled.   Send  user-keyed interrupt to silence alarm.
   Current values.  INDBUF  INDBEG  LIMBUF  MFLUSH  NUMDCD  KCARD1  KCARD2
                    339994      50  340000    1002      46       1      50
Plot timespan now in memory (in sec) = 8.49839970E-02   1.27477000E-01
   ++++  Begin plot-data copy from memory to disk.   MFLUSH, INDBUF, N4, Tbeg,  Tend = 1003  339994       1  -1.00000E+00
1.00000E+19
 127500     .1275  -325665.34 427061.568 1470.96807   425590.6  -752726.9 327136.304  49.032269
 128000      .128   -354240.2 402381.485 1526.68049 400854.805 -756621.69 355766.882 50.8893497
 128500     .1285  -377036.78 371194.562 1602.46375 369592.099 -748231.34 378639.242 53.4154584
 129000      .129  -394774.49 334929.395 1681.26662 333248.128 -729703.88 396455.757 56.0422206
 129500     .1295  -407914.35 294847.725 1747.45853 293100.267 -702762.08 409661.809 58.2486175
 130000       .13  -415166.67  250951.47 1775.55431 249175.915 -666118.14 416942.221 59.1851437
 130500     .1305  -413710.76 201863.397 1767.76105 200095.636 -615574.16 415478.524 58.9253684
 131000      .131  -402347.29 147182.725 1760.25022 145422.475 -549530.02 404107.542 58.6750073
 131500     .1315  -383003.24  89123.603 1774.15362 87349.4494 -472126.84 384777.392 59.1384541
 132000      .132  -357919.44  30144.368 1798.85436 28345.5136 -388063.81 359718.298  59.961812
 132500     .1325  -328427.96 -27971.799 1819.57936 -29791.379 -300456.16 330247.542 60.6526453
 133000      .133  -295280.21 -83903.624 1820.86647 -85724.491 -211376.58 297101.074 60.6955489
 133500     .1335  -257692.51 -137672.13 1782.18836 -139454.32 -120020.38 259474.695 59.4062786
 134000      .134  -213782.31 -190445.99 1716.04585 -192162.04 -23336.315 215498.354 57.2015284
 134500     .1345  -163963.57 -241895.68 1659.15099 -243554.83 77932.1082 165622.721 55.3050328
 135000      .135   -111023.4 -289692.79 1622.71763 -291315.51 178669.393 112646.119 54.0905877
 135500     .1355  -57401.504 -331839.08 1592.93493 -333432.02 274437.577 58994.4386 53.0978309
 136000      .136  -4719.1314 -366954.49 1554.40786  -368508.9 362235.358  6273.5393 51.8135954
 136500     .1365  46356.4383 -394442.11 1490.69609 -395932.81 440798.549 -44865.742 49.6898697
 137000      .137  96535.9734 -415036.18 1391.28617 -416427.47 511572.153 -95144.687 46.3762058
 137500     .1375  147106.432 -430217.83 1279.18443 -431497.02 577324.266 -145827.25 42.6394809
 138000      .138  196846.614 -439698.72 1188.51675 -440887.24 636545.335  -195658.1  39.617225
 138500     .1385  242956.254 -441843.11 1122.34152 -442965.46 684799.368 -241833.91 37.4113842
 139000      .139  283493.091 -435695.79 1065.55189 -436761.35 719188.886 -282427.54 35.5183962
 139500     .1395  317281.795 -420854.87 1003.94117 -421858.81 738136.666 -316277.85 33.4647058
 140000       .14  344364.318 -397857.78 922.516006 -398780.29 742222.096  -343441.8 30.7505335
 140500     .1405  366049.421 -368434.16 819.312092 -369253.47 734483.578 -365230.11 27.3104031
 141000      .141  383576.762 -334508.85 721.296093 -335230.14 718085.608 -382855.47 24.0432031
 141500     .1415   395773.97 -296150.74 655.523698 -296806.27 691924.712 -395118.45 21.8507899
 142000      .142  400616.071 -252629.68 618.534648 -253248.21 653245.747 -399997.54 20.6178216
 142500     .1425   397198.68 -203983.04 594.245691 -204577.28 601181.715 -396604.43 19.8081897
 143000      .143  385361.124 -150721.08 568.649829 -151289.73 536082.204 -384792.47 18.9549943
 143500     .1435  366197.276 -94256.528 527.181157 -94783.709 460453.804  -365670.1 17.5727052
 144000      .144  341865.999 -36935.316 473.282432 -37408.598 378801.315 -341392.72 15.7760811
 144500     .1445   313776.24 19320.1891 434.940102 18885.2489 294456.051  -313341.3 14.4980034
 145000      .145  281183.824 74408.6918 431.600227 73977.0916 206775.132 -280752.22 14.3866742
 145500     .1455  243069.336 128613.565  454.94404 128158.621 114455.771 -242614.39 15.1648013
 146000      .146  199516.556  181542.71 488.307028 181054.403 17973.8463 -199028.25 16.2769009
 146500     .1465  151325.164 232400.428 517.904179 231882.524 -81075.264 -150807.26 17.2634726
 147000      .147  100375.531 279643.251  531.37598 279111.875 -179267.72 -99844.155 17.7125327
 147500     .1475  49260.8684  321133.63 537.333542 320596.297 -271872.76 -48723.535 17.9111181
 148000      .148  -760.02702 355705.205 562.553668 355142.651 -356465.23 1322.58069 18.7517889
 148500     .1485  -50260.085 383837.248 617.832423 383219.416 -434097.33 50877.9177 20.5944141
 149000      .149  -99681.774 406062.046  690.85013 405371.196 -505743.82 100372.624 23.0283377
 149500     .1495  -148560.15 422378.278 765.555658 421612.723 -570938.43 149325.702 25.5185219
 150000       .15  -195754.59 432403.842 828.929583 431574.912 -628158.43 196583.523 27.6309861
 150500     .1505    -239311. 435158.322 872.182499  434286.14 -674469.32 240183.179   29.07275
 151000      .151  -277026.61  429410.99 907.738819 428503.251  -706437.6 277934.348 30.2579606
 151500     .1515  -308410.73 415233.275 958.719103 414274.556 -723644.01 309369.451 31.9573034
 152000      .152  -334428.47 394008.432 1028.34847 392980.084  -728436.9 335456.815 34.2782825
 152500     .1525   -355625.5 366881.408 1102.74246 365778.666 -722506.91 356728.246  36.758082
 153000      .153  -371852.03 334543.067 1168.03804 333375.029 -706395.09 373020.064 38.9346013
 153500     .1535  -382324.62 297252.315 1212.87021 296039.445 -679576.93  383537.49 40.4290069
 154000      .154  -385680.02  254741.82 1233.45922  253508.36 -640421.84  386913.48 41.1153073
 154500     .1545  -380771.49 206778.354 1245.70338  205532.65 -587549.84 382017.191 41.5234461
 155000      .155  -368265.08 154500.829 1268.79124 153232.038 -522765.91  369533.87 42.2930414
 155500     .1555  -349821.45 99902.5586 1300.89503 98601.6635 -449724.01 351122.346 43.3631675
 156000      .156  -326458.05 44481.1144 1328.33682 43152.7776 -370939.16 327786.382 44.2778939
 156500     .1565   -298609.3 -10740.728 1339.97394 -12080.702 -287868.57 299949.272  44.665798
 157000      .157  -266096.98  -65266.53 1327.20505 -66593.735 -200830.45 267424.181 44.2401684
 157500     .1575  -228303.75 -119108.45 1291.98769 -120400.44  -109195.3 229595.733 43.0662563
 158000      .158  -185192.31 -172026.23 1252.71347 -173278.94 -13166.079 186445.022 41.7571157
 158500     .1585  -138375.65 -222540.72 1224.08071  -223764.8 84165.0685  139599.73 40.8026903
 159000      .159  -89935.244  -268806.5 1200.67949 -270007.18 178871.253 91135.9238 40.0226496
 159500     .1595    -41139.8 -309656.41 1169.88883  -310826.3 268516.613 42309.6891 38.9962942
 160000       .16  7332.64983 -344460.63 1123.33594 -345583.97 351793.284 -6209.3139 37.4445314
 160500     .1605  55414.9063 -373177.34 1055.83808 -374233.18 428592.249 -54359.068 35.1946025
 161000      .161  103389.634 -396226.56 974.364229 -397200.92 499616.194 -102415.27 32.4788076
 161500     .1615  150728.384 -413588.39 898.011171  -414486.4 564316.774 -149830.37 29.9337057
 162000      .162  195583.158   -424223. 836.601222  -425059.6 619806.161 -194746.56 27.8867074
 162500     .1625  236145.494 -427126.19 782.325991 -427908.52 663271.688 -235363.17  26.077533
 163000      .163  271508.464 -422023.98 724.079168 -422748.06 693532.449 -270784.39 24.1359723
 163500     .1635   301407.78 -409193.52 655.571219 -409849.09 710601.297 -300752.21  21.852374
 164000      .164  326163.153 -389465.17 574.659531 -390039.83  715628.32 -325588.49 19.1553177
 164500     .1645  346316.129 -363980.57 491.680077 -364472.25 710296.702 -345824.45 16.3893359
 165000      .165  361465.422 -333248.09 424.365537 -333672.45 694713.511 -361041.06 14.1455179
 165500     .1655   370261.94 -296963.03 377.329901 -297340.36 667224.971 -369884.61 12.5776634
 166000      .166  371779.284 -255096.08 340.785451 -255436.86  626875.36  -371438.5  11.359515
 166500     .1665  365965.955 -208261.12 304.726697 -208565.84  574227.07 -365661.23 10.1575566
 167000      .167  353406.085 -157542.83 263.850733 -157806.68 510948.914 -353142.23 8.79502445
 167500     .1675   335168.12  -104437.7 218.299819   -104656. 439605.821 -334949.82 7.27666065
 168000      .168  312317.021 -50493.032 179.991567 -50673.024 362810.053 -312137.03 5.99971891
 168500     .1685  284893.515 3562.96522 163.368345 3399.59688  281330.55 -284730.15  5.4456115
 169000      .169  252308.512 57645.7807 167.851804 57477.9289 194662.731 -252140.66 5.59506014
 169500     .1695  214591.117 111309.389 182.122546 111127.267 103281.728 -214408.99 6.07075154
  % % % % % %   Suspended simulation;  plot data space exhausted;  SPY SPACE is required.   LIMBUF =  340000.
  % % % % % %   Suspended simulation;  plot data space exhausted;  SPY SPACE is required.   LIMBUF =  340000.
  +++  Time-sharing disabled.   Send  user-keyed interrupt to silence alarm.
   Current values.  INDBUF  INDBEG  LIMBUF  MFLUSH  NUMDCD  KCARD1  KCARD2
                    339994      50  340000    1003      46       1      50
Plot timespan now in memory (in sec) = 1.27476007E-01   1.69969000E-01
   ++++  Begin plot-data copy from memory to disk.   MFLUSH, INDBUF, N4, Tbeg,  Tend = 1004  339994       1  -1.00000E+00
1.00000E+19
 170000       .17  172507.732 163631.687 197.052325 163434.635 8876.04467 -172310.68 6.56841084
 170500     .1705  127347.782 213364.519 207.944912 213156.574 -86016.737 -127139.84 6.93149706
 171000      .171  80704.5593 259040.853 216.774258 258824.079 -178336.29 -80487.785 7.22580861
 171500     .1715  33864.0812 299437.527 235.659702 299201.868 -265573.45 -33628.422 7.85532342
 172000      .172  -12954.539 334264.487 274.753361 333989.734 -347219.03 13229.2924 9.15844536
 172500     .1725  -59916.211 363704.981 329.213999 363375.767 -423621.19 60245.4251    10.9738
 173000      .173  -106538.06 387571.901 387.171314  387184.73 -494109.96 106925.226 12.9057105
 173500     .1735  -151790.15  405353.13 440.585417 404912.544 -557143.28 152230.735 14.6861806
 174000      .174  -194299.52 416339.635 485.689306 415853.946 -610639.16 194785.211 16.1896435
 174500     .1745  -232605.76 419764.851 526.219165 419238.632 -652370.61 233131.979 17.5406388
 175000      .175  -265848.71 415329.922 573.808525 414756.113 -681178.63 266422.515 19.1269508
 175500     .1755  -294201.85  403644.69 634.474403 403010.216 -697846.54 294836.325 21.1491468
 176000      .176  -318006.55 385572.008 700.698736  384871.31 -703578.56 318707.253 23.3566245
 176500     .1765  -337007.18 361587.477  761.35646 360826.121 -698594.66 337768.539 25.3785487
 177000      .177  -350561.55 331904.644 810.083766  331094.56 -682466.19 351371.635 27.0027922
 177500     .1775   -357845.7 296590.333 844.899473 295745.433 -654436.03 358690.599 28.1633158
 178000      .178   -358130.7 255732.749  871.58817 254861.161 -613863.45 359002.291  29.052939
 178500     .1785  -351468.76 209978.312 901.131336 209077.181 -561447.07 352369.888 30.0377112
 179000      .179  -338792.69 160705.607 936.261808 159769.345  -499498.3 339728.955 31.2087269
 179500     .1795  -320970.05 109273.602  968.47945 108305.123 -430243.65 321938.532 32.2826483
 180000       .18  -298314.08 56596.9075 988.621061 55608.2865 -354910.99 299302.699 32.9540354
 180500     .1805  -270827.98 3302.91502 992.597637 2310.31738 -274130.89 271820.576 33.0865879
 181000      .181  -238412.56 -50153.349 980.923224 -51134.272 -188259.21  239393.48 32.6974408
 181500     .1815  -201168.88 -103282.42 961.439469 -104243.86 -97886.453 202130.315 32.0479823
 182000      .182  -160001.64 -155062.63 944.203852 -156006.83 -4939.0093 160945.839 31.4734617
 182500     .1825  -116425.48 -204008.32 929.491667 -204937.81 87582.8419 117354.971 30.9830556
 183000      .183  -71639.554 -248917.43 909.015503 -249826.45 177277.876 72548.5698 30.3005168
 183500     .1835  -26289.921 -289092.85 876.103954 -289968.96 262802.932 27166.0246 29.2034651
 184000      .184  19284.2682 -324171.42 828.979714  -325000.4 343455.688 -18455.288 27.6326571
 184500     .1845   64841.392 -353997.88 770.621787  -354768.5 418839.274  -64070.77 25.6873929
 185000      .185  109897.803 -378368.24 710.275813 -379078.51  488266.04 -109187.53 23.6758604
 185500     .1855  153267.524 -396613.71 656.422425 -397270.13 549881.231  -152611.1 21.8807475
 186000      .186  193478.089 -407859.62 607.282354  -408466.9 601337.708 -192870.81 20.2427451
 186500     .1865  229584.476 -411684.37 555.191603 -412239.56 641268.847 -229029.28 18.5063868
 187000      .187  261201.133 -408169.86 495.635376 -408665.49 669370.992  -260705.5 16.5211792
 187500     .1875  288255.519 -397719.78 428.567561 -398148.35 685975.302 -287826.95 14.2855854
 188000      .188  310775.649 -380915.47 358.681637 -381274.15 691691.121 -310416.97 11.9560546
 188500     .1885  328513.973 -358212.21 295.403203 -358507.62 686726.186 -328218.57 9.84677342
 189000      .189  340661.504 -329638.59 244.718439 -329883.31 670300.096 -340416.79 8.15728131
 189500     .1895  346404.186 -295186.26 202.803666 -295389.07 641590.449 -346201.38  6.7601222
 190000       .19   345558.98 -255327.25 162.458445 -255489.71 600886.227 -345396.52  5.4152815
 190500     .1905  338456.444 -210939.87 120.501098 -211060.37 549396.313 -338335.94 4.01670328
 191000      .191  325688.669 -163120.55  77.776765 -163198.32 488809.215 -325610.89 2.59255883
 191500     .1915  307890.067 -113022.33 39.6392045 -113061.97 420912.397 -307850.43 1.32130682
 192000      .192  285346.887 -61528.469 14.3758512 -61542.844 346875.355 -285332.51 .479195042
 192500     .1925  257893.261 -9091.1109 4.78875726 -9095.8996 266984.372 -257888.47 .159625242
 193000      .193  225531.988 43803.7935 5.08950157  43798.704 181728.195  -225526.9 .169650052
 193500     .1935   188863.86 96277.3911 8.37230078 96269.0188 92586.4687 -188855.49 .279076693
 194000      .194  148877.765 147205.305 12.1138765 147193.191 1672.45969 -148865.65 .403795883
 194500     .1945  106697.141 195400.728 17.4876507 195383.241 -88703.587 -106679.65  .58292169
 195000      .195  63352.8852 239785.445 29.7562372 239755.689 -176432.56 -63323.129 .991874573
 195500     .1955  19420.2334 279699.559 55.2772372 279644.281 -260279.33 -19364.956 1.84257457
 196000      .196  -24911.362 314912.208 93.7000836 314818.508 -339823.57 25005.0619 3.12333612
 196500     .1965  -69215.846 345130.252 137.840131 344992.412  -414346.1 69353.6866 4.59467105
 197000      .197  -112598.27 369784.707 181.328483 369603.379 -482382.98 112779.598 6.04428275
 197500     .1975   -153947.2 388207.088 222.204338 387984.884 -542154.29 154169.403 7.40681127
 198000      .198  -192174.62 399793.294 261.994234   399531.3 -591967.91 192436.615 8.73314113
 198500     .1985  -226445.61  404174.76 305.725914 403869.034 -630620.37 226751.337 10.1908638
 199000      .199   -256466.8 401471.508 357.796234 401113.711 -657938.31 256824.595 11.9265411
 199500     .1995  -282262.62 392159.249 415.500919 391743.748 -674421.87  282678.12 13.8500306
 200000       0.2  -303600.68 376595.906 471.326884 376124.579 -680196.59 304072.008 15.7108961
 200500     .2005  -319920.19 354927.203 520.092356  354407.11  -674847.4 320440.287 17.3364119
 201000      .201  -330590.22 327263.695 560.829817 326702.865 -657853.92 331151.053 18.6943272
 201500     .2015  -335119.88 293818.447 595.874439 293222.573 -628938.32 335715.752 19.8624813
 202000      .202  -333380.17 255072.557 630.287694 254442.269 -588452.72 334010.453 21.0095898
 202500     .2025  -325782.19 211945.301 666.980912  211278.32 -537727.49 326449.175 22.2326971
 203000      .203  -312932.29 165545.628 702.062603 164843.565 -478477.92 313634.355 23.4020868
 203500     .2035  -295144.19 116757.881  728.85558 116029.025 -411902.07 295873.049  24.295186
 204000      .204  -272484.05  66240.482 744.017935 65496.4641 -338724.53 273228.067 24.8005978
 204500     .2045  -245014.24  14593.545 748.063721 13845.4812 -259607.78 245762.299 24.9354574
 205000      .205  -212968.19 -37524.515 744.525108 -38269.041 -175443.67 213712.715 24.8175036
 205500     .2055   -176953.4 -89237.959 738.682962 -89976.642 -87715.444 177692.087 24.6227654
 206000      .206  -138006.61  -139373.4 732.420035 -140105.82 1366.78347 138739.034 24.4140012
 206500     .2065   -97173.69 -186779.28 721.592956 -187500.87 89605.5916 97895.2833 24.0530985
 207000      .207  -55138.631 -230646.49 701.069516 -231347.56 175507.863 55839.7006 23.3689839
 207500     .2075  -12348.149 -270436.63 669.518108 -271106.15 258088.482  13017.667 22.3172703
 208000      .208  30764.8572 -305721.87 628.979719 -306350.85 336486.728 -30135.878 20.9659906
 208500     .2085  73633.9064 -336076.18 584.057683 -336660.24 409710.087 -73049.849 19.4685894
 209000      .209  115383.443 -360923.15 539.961151 -361463.11  476306.59 -114843.48  17.998705
 209500     .2095  154886.505 -379537.78 497.590938 -380035.37 534424.288 -154388.91 16.5863646
 210000       .21  191206.223 -391387.49 452.885419 -391840.37 582593.709 -190753.34 15.0961806
 210500     .2105  223832.279 -396339.27 402.244635 -396741.52 620171.552 -223430.03 13.4081545
 211000      .211   252502.34 -394532.08 345.876897 -394877.96 647034.422 -252156.46 11.5292299
 211500     .2115   276997.08 -386220.61   286.8104 -386507.42 663217.688 -276710.27 9.56034666
 212000      .212  297005.808 -371663.12 230.022921 -371893.14 668668.927 -296775.78 7.66743071
  % % % % % %   Suspended simulation;  plot data space exhausted;  SPY SPACE is required.   LIMBUF =  340000.
  % % % % % %   Suspended simulation;  plot data space exhausted;  SPY SPACE is required.   LIMBUF =  340000.
  +++  Time-sharing disabled.   Send  user-keyed interrupt to silence alarm.
   Current values.  INDBUF  INDBEG  LIMBUF  MFLUSH  NUMDCD  KCARD1  KCARD2
                    339994      50  340000    1004      46       1      50
Plot timespan now in memory (in sec) = 1.69967994E-01   2.12461000E-01
   ++++  Begin plot-data copy from memory to disk.   MFLUSH, INDBUF, N4, Tbeg,  Tend = 1005  339994       1  -1.00000E+00
1.00000E+19
 212500     .2125  311985.763 -350982.39 179.905663  -351162.3 662968.158 -311805.86 5.99685544
 213000      .213  321308.854 -324237.08 136.046194 -324373.13 645545.934 -321172.81 4.53487314
 213500     .2135  324673.625 -291743.01 94.2969383 -291837.31  616416.64 -324579.33 3.14323128
 214000      .214  322206.873 -254168.41 52.0586024 -254220.47 576375.285 -322154.81 1.73528675
 214500     .2145  314250.207 -212369.94 10.2512451 -212380.19 526620.146 -314239.96 .341708169
 215000      .215  301172.101 -167243.46 -27.931568 -167215.53 468415.564 -301200.03 -.93105228
 215500     .2155  283237.118 -119607.82 -58.033903 -119549.78 402844.935 -283295.15 -1.9344634
 216000      .216  260509.112   -70093.7 -77.263197 -70016.437 330602.813 -260586.38 -2.5754399
 216500     .2165  233061.121  -19273.94 -87.656136 -19186.284 252335.061 -233148.78 -2.9218712
 217000      .217  201321.051 32059.6561 -93.668643 32153.3248 169261.395 -201414.72 -3.1222881
 217500     .2175   166057.43 82892.3179 -97.442844 82989.7608 83165.1124 -166154.87 -3.2480948
 218000      .218  128150.716 132162.401 -98.011985 132260.413  -4011.685 -128248.73 -3.2670662
 218500     .2185  88426.1261 178893.779 -92.610455  178986.39 -90467.653 -88518.737 -3.0870152
 219000      .219  47529.3301 222305.665 -77.881786 222383.547 -174776.33 -47607.212 -2.5960595
 219500     .2195  5885.32668 261876.635 -52.950148 261929.585 -255991.31 -5938.2768 -1.7650049
 220000       .22  -36050.031  297164.55 -21.339027 297185.889 -333214.58 36028.6918 -.71130089
 220500     .2205     -77528. 327583.982 12.3381283 327571.643 -405111.98 77540.3383 .411270942
 221000      .221  -117603.99 352462.758 46.2730626 352416.484 -470066.74  117650.26 1.54243542
 221500     .2215  -155359.38 371206.842 81.3494103 371125.493 -526566.22 155440.729 2.71164701
 222000      .222  -190040.21 383405.443   119.8599 383285.583 -573445.66 190160.072    3.99533
 222500     .2225  -221161.66 388920.071 164.076614 388755.994 -610081.74 221325.741 5.46922047
 223000      .223   -248483.2 387887.548 213.299269 387674.249 -636370.75 248696.503 7.10997563
 223500     .2235  -271733.56 380503.364 263.210489 380240.154 -652236.93 271996.772 8.77368297
 224000      .224  -290433.58 366855.688 309.637121 366546.051 -657289.27 290743.221 10.3212374
 224500     .2245  -304039.88 347014.781 351.445317 346663.335 -651054.66 304391.327 11.7148439
 225000      .225  -312139.93 321171.932 389.795221 320782.137 -633311.87 312529.729  12.993174
 225500     .2255  -314556.33   289714.3 426.905434 289287.394 -604270.63 314983.235 14.2301811
 226000      .226  -311416.58 253284.271 464.414197 252819.857 -564700.85 311880.992 15.4804732
 226500     .2265  -303060.43 212720.956 500.799617 212220.156 -515781.38 303561.226 16.6933206
 227000      .227  -289761.22 168828.966 531.889923 168297.076 -458590.18 290293.107 17.7296641
 227500     .2275   -271627.1 122271.041 554.668756 121716.373 -393898.14 272181.769 18.4889585
 228000      .228  -248763.14 73674.1418 569.133161 73105.0086 -322437.28 249332.274 18.9711054
 228500     .2285  -221429.01 23740.6469 577.161403 23163.4854 -245169.65 222006.169 19.2387134
 229000      .229  -190110.14 -26699.735 581.309395 -27281.044 -163410.41 190691.452 19.3769798
 229500     .2295  -155545.51 -76659.543 583.019194 -77242.562 -78885.967 156128.529 19.4339731
 230000       .23   -118578.4 -125099.43 580.618747 -125680.05 6521.03837 119159.015 19.3539582
 230500     .2305  -79898.731 -171145.24 570.769118 -171716.01 91246.5135 80469.5001 19.0256373
 231000      .231  -40015.445 -214133.59 551.978694 -214685.57 174118.147 40567.4241 18.3992898
 231500     .2315  577.999007  -253494.3 525.499588  -254019.8 254072.296  -52.49942 17.5166529
 232000      .232  41281.9231 -288658.85 494.004166 -289152.85 329940.773 -40787.919 16.4668055
 232500     .2325   81343.484 -319018.64 460.392322 -319479.03 400362.122 -80883.092 15.3464107
 233000      .233  119867.882  -343916.4  425.94874 -344342.35 463784.285 -119441.93 14.1982913
 233500     .2335  156001.483 -362777.53 389.061901 -363166.59  518779.01 -155612.42   12.96873
 234000      .234  189142.565  -375286.1 347.340797 -375633.44 564428.662 -188795.22 11.5780266
 234500     .2345  218904.343 -381369.07 300.595929 -381669.67 600273.413 -218603.75 10.0198643
 235000      .235  244951.075 -381068.92 250.933385 -381319.86 626019.999 -244700.14 8.36444616
 235500     .2355  266903.009 -374462.58 201.383571 -374663.96  641365.59 -266701.63  6.7127857
 236000      .236  284302.811 -361620.55  154.70955 -361775.26 645923.357  -284148.1   5.156985
 236500     .2365  296656.628 -342614.62 111.648152 -342726.27 639271.248 -296544.98 3.72160506
 237000      .237  303625.173 -317655.04 70.4062375 -317725.45 621280.215 -303554.77 2.34687458
 237500     .2375  305168.329 -287210.48 29.1684716 -287239.65 592378.806 -305139.16 .972282386
 238000      .238  301453.038 -251940.21 -11.598213 -251928.61 553393.246 -301464.64 -.38660708
 238500     .2385  292694.086 -212563.35 -49.650052  -212513.7  505257.44 -292743.74 -1.6550017
 239000      .239  279076.668 -169785.76 -82.290352 -169703.47  448862.43 -279158.96 -2.7430117
 239500     .2395  260730.747 -124260.99  -107.5538 -124153.44 384991.737  -260838.3 -3.5851267
 240000       .24  237794.272 -76615.446 -125.73681 -76489.709 314409.718 -237920.01 -4.1912269
 240500     .2405  210591.908 -27580.765 -139.15079 -27441.614 238172.673 -210731.06 -4.6383595
 241000      .241  179708.304 21941.3884 -149.48802 22090.8764 157766.916 -179857.79 -4.9829341
 241500     .2415  145857.106 70979.6807 -156.24579 71135.9265 74877.4258 -146013.35 -5.2081929
 242000      .242  109733.742  118614.29 -157.62658 118771.917  -8880.548 -109891.37 -5.2542193
 242500     .2425  71953.3517 164036.294 -151.76231 164188.056 -92082.942 -72105.114 -5.0587436
 243000      .243   33036.607 206574.672 -137.87094 206712.543 -173538.07 -33174.478  -4.595698
 243500     .2435  -6507.1466 245647.318 -117.43288  245764.75 -252154.46 6389.71367 -3.9144294
 244000      .244  -46023.817  280636.13 -93.296584 280729.426 -326659.95   45930.52 -3.1098861
 244500     .2445  -84702.958  310864.89 -67.153774 310932.044 -395567.85 84635.8039 -2.2384591
 245000      .245  -121725.46 335708.876 -38.669684 335747.546 -457434.33 121686.789 -1.2889895
 245500     .2455   -156387.1 354691.979 -6.6021588 354698.582 -511079.08 156380.503 -.22007196
 246000      .246  -188140.83 367524.006 30.0912164 367493.915 -555664.84 188170.926 1.00304055
 246500     .2465   -216590.1 374104.033 71.1554725 374032.878 -590694.14 216661.259 2.37184908
 247000      .247  -241384.88 374443.147 114.298831 374328.848 -615828.03 241499.178 3.80996103
 247500     .2475  -262091.01 368548.458  156.57598 368391.882 -630639.47 262247.589 5.21919932
 248000      .248  -278222.26 356429.324 196.609451 356232.715 -634651.59 278418.874 6.55364837
 248500     .2485  -289382.76 338198.316 234.830852 337963.485 -627581.07 289617.587 7.82769506
 249000      .249   -295356.7 314136.665 272.276414 313864.389 -609493.37 295628.979 9.07588048
 249500     .2495  -296125.49 284706.426 309.591461 284396.835 -580831.92 296435.082 10.3197154
 250000       .25  -291832.76 250525.868  346.03257 250179.836 -542358.63 292178.795  11.534419
 250500     .2505  -282661.83 212268.687 379.196039 211889.491 -494930.52  283041.03  12.639868
 251000      .251  -268732.05 170563.361  406.70269 170156.659 -439295.41 269138.755 13.5567563
 251500     .2515  -250157.63 126019.746  427.97673 125591.769 -376177.37 250585.605  14.265891
 252000      .252  -227170.64 79315.0132 443.972571 78871.0406 -306485.66 227614.616 14.7990857
 252500     .2525  -200174.78 31231.1264  455.97844  30775.148 -231405.91 200630.763 15.1992813
 253000      .253  -169737.42 -17352.093 464.719352 -17816.813 -152385.33 170202.144 15.4906451
 253500     .2535  -136527.48 -65503.164 469.508383 -65972.673 -71024.311 136996.984 15.6502794
 254000      .254   -101184.4 -112348.32 468.425628 -112816.74 11163.9211 101652.821 15.6141876
 254500     .2545  -64246.429 -157145.03   460.1172 -157605.15 92898.6017 64706.5458   15.33724
  % % % % % %   Suspended simulation;  plot data space exhausted;  SPY SPACE is required.   LIMBUF =  340000.
  % % % % % %   Suspended simulation;  plot data space exhausted;  SPY SPACE is required.   LIMBUF =  340000.
  +++  Time-sharing disabled.   Send  user-keyed interrupt to silence alarm.
   Current values.  INDBUF  INDBEG  LIMBUF  MFLUSH  NUMDCD  KCARD1  KCARD2
                    339994      50  340000    1005      46       1      50
Plot timespan now in memory (in sec) = 2.12459996E-01   2.54953000E-01
   ++++  Begin plot-data copy from memory to disk.   MFLUSH, INDBUF, N4, Tbeg,  Tend = 1006  339994       1  -1.00000E+00
1.00000E+19
 255000      .255  -26226.724 -199235.53 445.057196 -199680.59 173008.809 26671.7811 14.8352399
 255500     .2555  12286.2454 -237972.13 424.894607 -238397.03 250258.379 -11861.351 14.1631536
 256000      .256  50603.3185 -272695.76  401.32822 -273097.09 323299.083  -50201.99 13.3776073
 256500     .2565  87960.0721 -302750.38 375.301359 -303125.68 390710.448 -87584.771 12.5100453
 257000      .257  123596.082   -327538. 346.355928 -327884.35 451134.079 -123249.73 11.5451976
 257500     .2575  156877.514 -346617.85 313.207222 -346931.06 503495.366 -156564.31 10.4402407
 258000      .258  187329.876 -359741.82 275.492303 -360017.31 547071.692 -187054.38 9.18307678
 258500     .2585  214547.607 -366786.66 234.506591 -367021.16 581334.264  -214313.1 7.81688635
 259000      .259  238111.557 -367684.37 192.310186 -367876.68 605795.924 -237919.25 6.41033953
 259500     .2595  257579.381 -362405.03 150.716462 -362555.75  619984.41 -257428.66 5.02388208
 260000       .26  272517.992 -350969.46 110.585202 -351080.04  623487.45 -272407.41 3.68617341
 260500     .2605  282586.372 -333502.53 71.4280779 -333573.95 616088.897 -282514.94 2.38093593
 261000      .261   287633.23 -310308.67 32.2988193 -310340.97 597941.898 -287600.93 1.07662731
 261500     .2615  287687.039 -281866.73  -6.638985 -281860.09 569553.769 -287693.68  -.2212995
 262000      .262   282853.73 -248745.18 -43.853972 -248701.32 531598.908 -282897.58 -1.4617991
 262500     .2625  273246.897  -211536.5 -77.452627 -211459.05 484783.402 -273324.35 -2.5817542
 263000      .263  258984.232 -170840.68 -106.05125 -170734.63 429824.916 -259090.28 -3.5350416
 263500     .2635  240220.371 -127275.48 -129.36632 -127146.11 367495.851 -240349.74 -4.3122106
 264000      .264  217223.711 -81525.644 -148.32676 -81377.317 298749.355 -217372.04 -4.9442253
 264500     .2645  190440.518 -34392.502 -163.96643 -34228.536  224833.02 -190604.48 -5.4655478
 265000      .265  160447.213 13242.6544 -176.12929 13418.7837 147204.559 -160623.34 -5.8709764
 265500     .2655  127843.596 60508.1413 -183.60791 60691.7492 67335.4544  -128027.2 -6.1202638
 266000      .266  93195.8976 106596.646 -185.15667 106781.803 -13400.749 -93381.054 -6.1718891
 266500     .2665  57037.6436 150775.796 -180.21466 150956.011 -93738.153 -57217.858 -6.0071553
 267000      .267  19903.8324 192372.542 -169.35813   192541.9 -172468.71 -20073.191 -5.6452709
 267500     .2675  -17600.055 230723.285  -154.1284 230877.413 -248323.34 17445.9266 -5.1376135
 268000      .268  -54765.491 265143.315 -135.81604 265279.131 -319908.81 54629.6745 -4.5272014
 268500     .2685  -90852.471 294978.484 -114.49614  295092.98 -385830.95 90737.9748 -3.8165379
 269000      .269  -125188.04 319683.796 -89.466916 319773.263 -444871.83  125098.57 -2.9822305
 269500     .2695  -157204.85 338857.767  -60.19805 338917.965 -496062.62 157144.654 -2.0066017
 270000       .27  -186430.67 352238.397 -26.909894 352265.307 -538669.07 186403.763 -.89699647
 270500     .2705  -212446.69 359673.318 9.12831327 359664.189   -572120. 212455.814 .304277109
 271000      .271  -234823.03 361064.031 46.0246678 361018.006 -595887.06 234869.056 1.53415559
 271500     .2715  -253109.02 356346.028 82.4774392 356263.551 -609455.05 253191.501 2.74924797
 272000      .272   -266911.5 345540.764 118.384664 345422.379 -612452.27 267029.889 3.94615545
 272500     .2725   -275972.4 328812.334  154.20039 328658.134 -604784.73 276126.596 5.14001302
 273000      .273  -280183.29 306476.905 190.092237 306286.813  -586660.2 280373.383  6.3364079
 273500     .2735  -279559.55 278980.449 225.490946 278754.959   -558540.  279785.04 7.51636486
 274000      .274  -274186.45 246852.482 258.953368 246593.529 -521038.93   274445.4 8.63177893
 274500     .2745  -264157.27 210645.897 288.786445 210357.111 -474803.17  264446.06 9.62621483
 275000      .275  -249578.15  170925.27 314.155128 170611.115 -420503.42 249892.308 10.4718376
 275500     .2755  -230640.72 128313.163 335.343206 127977.819 -358953.89 230976.066 11.1781069
 276000      .276  -207672.77 83524.4248 352.990464 83171.4344  -291197.2 208025.764 11.7663488
 276500     .2765  -181129.19 37355.7321 367.373805 36988.3583 -218484.92 181496.562 12.2457935
 277000      .277  -151550.89 -9349.4682 378.069929 -9727.5382 -142201.42 151928.955  12.602331
 277500     .2775  -119501.21 -55756.099 383.977828 -56140.077 -63745.107 119885.184 12.7992609
 278000      .278  -85510.638 -101092.26   384.0706 -101476.33 15581.6202 85894.7082 12.8023533
 278500     .2785   -50093.83   -144648. 378.318919 -145026.32 94554.1699 50472.1487 12.6106306
 279000      .279  -13813.026 -185731.56 367.639359  -186099.2 171918.538 14180.6654 12.2546453
 279500     .2795  22694.6341 -223648.85 353.088554 -224001.94 246343.484 -22341.546 11.7696185
 280000       .28  58741.7961 -257721.73 335.273077   -258057. 316463.528 -58406.523 11.1757692
 280500     .2805  93639.5294 -287324.53 314.116481 -287638.65 380964.061 -93325.413 10.4705494
 281000      .281  126761.015 -311935.13 289.033666 -312224.17 438696.148 -126471.98 9.63445552
 281500     .2815  157580.984  -331171.8 259.739982 -331431.54 488752.786 -157321.24 8.65799939
 282000      .282   185643.87 -344772.44   226.9421 -344999.38 530416.313 -185416.93 7.56473667
 282500     .2825  210506.381  -352547.4 192.035064 -352739.44 563053.784 -210314.35 6.40116881
 283000      .283  231723.942 -354362.49 156.319406 -354518.81 586086.428 -231567.62 5.21064687
 283500     .2835  248879.468 -350153.93 120.540397 -350274.47 599033.394 -248758.93 4.01801323
 284000      .284  261629.217 -339956.78 84.7597801 -340041.54 601585.993 -261544.46   2.825326
 284500     .2845  269755.082 -323942.06 48.6690341 -323990.73 593697.143 -269706.41 1.62230114
 285000      .285  273179.716 -302428.45 12.3927614 -302440.84 575608.165 -273167.32 .413092046
 285500     .2855  271917.743 -275840.99 -23.068718 -275817.93 547758.737 -271940.81 -.76895727
 286000      .286   266020.67  -244659.5 -56.317658 -244603.18 510680.165 -266076.99 -1.8772553
 286500     .2865  255568.653 -209401.01 -86.265693 -209314.75 464969.665 -255654.92 -2.8755231
 287000      .287  240695.288 -170628.22 -112.46687 -170515.75 411323.506 -240807.76 -3.7488957
 287500     .2875  221624.244 -128968.47 -135.13648 -128833.33 350592.713 -221759.38 -4.5045494
 288000      .288  198703.863 -85135.947 -154.71965 -84981.228  283839.81 -198858.58 -5.1573216
 288500     .2885  172396.547 -39921.319 -171.14713 -39750.172 212317.866 -172567.69 -5.7049043
 289000      .289  143216.841 5861.86644 -183.63068 6045.49712 137354.974 -143400.47 -6.1210225
 289500     .2895  111680.224 51426.2816 -191.23969 51617.5213 60253.9429 -111871.46 -6.3746563
 290000       .29  78298.3628 96024.3404 -193.49628 96217.8366 -17725.978 -78491.859 -6.4498761
 290500     .2905  43599.6008 138940.733 -190.58657 139131.319 -95341.132 -43790.187 -6.3528855
 291000      .291  8157.53344 179475.817 -183.26903 179659.086 -171318.28 -8340.8025 -6.1089675
 291500     .2915  -27390.171 216931.452 -172.35674 217103.809 -244321.62 27217.8138 -5.7452246
 292000      .292  -62370.818 250632.264 -158.07742 250790.342 -313003.08 62212.7404 -5.2692472
 292500     .2925  -96141.277 279977.788 -140.08027 280117.868 -376119.06 96001.1963 -4.6693422
 293000      .293   -128128.2 304478.062 -118.04511 304596.107 -432606.27 128010.159  -3.934837
 293500     .2935  -157824.89 323754.829 -92.150417  323846.98 -481579.72 157732.739 -3.0716806
 294000      .294  -184769.15 337526.046 -63.175276 337589.221 -522295.19 184705.974 -2.1058425
 294500     .2945  -208516.46 345583.101 -32.306499 345615.408 -554099.56 208484.149 -1.0768833
 295000      .295  -228629.72 347776.352 -.57702084 347776.929 -576406.07  228629.14 -.01923403
 295500     .2955  -244715.06 344036.037  31.633053 344004.404  -588751.1 244746.695  1.0544351
 296000      .296  -256476.88 334411.517 64.4126609 334347.104 -590888.39 256541.289  2.1470887
 296500     .2965  -263739.37 319086.192 97.7270375 318988.465 -582825.56 263837.099 3.25756792
 297000      .297  -266430.25    298362. 131.073756 298230.926 -564792.25 266561.327 4.36912519
  % % % % % %   Suspended simulation;  plot data space exhausted;  SPY SPACE is required.   LIMBUF =  340000.
  % % % % % %   Suspended simulation;  plot data space exhausted;  SPY SPACE is required.   LIMBUF =  340000.
  +++  Time-sharing disabled.   Send  user-keyed interrupt to silence alarm.
   Current values.  INDBUF  INDBEG  LIMBUF  MFLUSH  NUMDCD  KCARD1  KCARD2
                    339994      50  340000    1006      46       1      50
Plot timespan now in memory (in sec) = 2.54952013E-01   2.97445000E-01
   ++++  Begin plot-data copy from memory to disk.   MFLUSH, INDBUF, N4, Tbeg,  Tend = 1007  339994       1  -1.00000E+00
1.00000E+19
 297500     .2975  -264551.07 272631.757  163.47214 272468.285 -537182.83  264714.54 5.44907133
 298000      .298  -258146.78 242347.525 193.737759 242153.787  -500494.3 258340.513 6.45792532
 298500     .2985  -247298.19 208003.603 221.039537 207782.563  -455301.8 247519.234 7.36798458
 299000      .299  -232155.53 170152.857 245.232774 169907.624 -402308.39 232400.766 8.17442579
 299500     .2995  -212976.66 129430.527 266.537587 129163.989 -342407.19 213243.198 8.88458624
 300000       0.3  -190127.93 86550.5184 284.995409  86265.523 -276678.45 190412.928 9.49984697
 300500     .3005   -164054.6   42277.48  300.23519 41977.2448 -206332.08 164354.837 10.0078397
 301000      .301  -135243.55 -2608.2864 311.535531  -2919.822 -132635.27 135555.089 10.3845177
 301500     .3015  -104190.37 -47345.129 318.155254 -47663.284 -56845.237 104508.521 10.6051751
 302000      .302   -71394.57  -91203.74 319.841085 -91523.582 19809.1705 71714.4111 10.6613695
 302500     .3025  -37389.138  -133471.2 316.986647 -133788.19 96082.0606 37706.1248 10.5662216
 303000      .303  -2763.2502 -173436.19 310.216593 -173746.41 170672.941 3073.46682 10.3405531
 303500     .3035  31851.7973 -210401.32 299.914533 -210701.24  242253.12 -31551.883  9.9971511
 304000      .304  65818.5667 -243712.58 286.083462 -243998.67 309531.151 -65532.483 9.53611539
 304500     .3045  98531.5856 -272791.29 268.466232 -273059.76 371322.875 -98263.119 8.94887441
 305000      .305   129445.38 -297160.02  246.90724 -297406.92 426605.397 -129198.47 8.23024133
 305500     .3055  158070.879 -316443.78 221.777298 -316665.56 474514.659  -157849.1 7.39257659
 306000      .306   183945.76 -330347.08 193.970076 -330541.05  514292.84 -183751.79 6.46566921
 306500     .3065  206619.997 -338639.13 164.438953 -338803.56 545259.123 -206455.56 5.48129843
 307000      .307  225674.581 -341163.77 133.812502 -341297.58 566838.349 -225540.77 4.46041675
 307500     .3075   240754.01 -337860.42 102.336971 -337962.75 578614.428 -240651.67 3.41123238
 308000      .308  251596.155 -328783.93 70.0467411 -328853.97 580380.081 -251526.11 2.33489137
 308500     .3085  258046.888 -314114.27  37.136228 -314151.41 572161.157 -258009.75 1.23787427
 309000      .309  260042.587 -294140.33 4.28349939 -294144.61 554182.919  -260038.3 .142783313
 309500     .3095  257575.959 -269227.11  -27.48753 -269199.62  526803.07 -257603.45 -.91625099
 310000       .31  250683.133 -239796.96 -57.270917 -239739.69 490480.093  -250740.4 -1.9090306
 310500     .3105  239458.966 -206332.74 -84.564798 -206248.17 445791.701 -239543.53 -2.8188266
 311000      .311  224079.662 -169387.62 -109.25504 -169278.37 393467.286 -224188.92 -3.6418347
 311500     .3115  204819.428  -129592.1 -131.40016  -129460.7  334411.53 -204950.83 -4.3800052
 312000      .312  182048.464 -87648.188 -150.86697 -87497.321 269696.652 -182199.33  -5.028899
 312500     .3125  156201.727 -44300.021 -167.11409 -44132.907 200501.748 -156368.84 -5.5704698
 313000      .313  127741.171 -296.66804 -179.42666 -117.24138 128037.839  -127920.6 -5.9808887
 313500     .3135  97143.4115 43626.2986  -187.3414   43813.64 53517.1129 -97330.753 -6.2447135
 314000      .314  64910.5482 86746.0655 -190.83133 86936.8968 -21835.517  -65101.38 -6.3610442
 314500     .3145  31583.9114 128347.722 -190.22362 128537.945  -96763.81 -31774.135 -6.3407874
 315000      .315  -2250.0699 167723.025  -185.9479 167908.973  -169973.1 2064.12195 -6.1982633
 315500     .3155  -35974.024 204182.857 -178.19744 204361.054 -240156.88 35795.8264 -5.9399146
 316000      .316  -68977.318 237088.835 -166.81814 237255.653 -306066.15 68810.4995 -5.5606048
 316500     .3165  -100690.36  265884.07 -151.60318 266035.673 -366574.43 100538.754 -5.0534393
 317000      .317  -130591.36 290102.331 -132.65316 290234.984 -420693.69 130458.703  -4.421772
 317500     .3175   -158194.8 309361.129  -110.4666 309471.595 -467555.93 158084.337 -3.6822199
 318000      .318  -183039.94 323352.555 -85.804319 323438.359 -506392.49 182954.132  -2.860144
 318500     .3185  -204688.27 331838.537 -59.415371 331897.953  -536526.8 204628.851 -1.9805124
 319000      .319  -222740.96 334660.142 -31.743918 334691.886  -557401.1 222709.215 -1.0581306
 319500     .3195  -236872.63 331760.816 -2.9186917 331763.735 -568633.45 236869.712 -.09728972
 320000       .32  -246853.59 323201.991 26.9233674 323175.068 -570055.58 246880.517 .897445579
 320500     .3205  -252544.92 309156.952 57.3526706   309099.6 -561701.88 252602.276 1.91175569
 321000      .321  -253880.28 289892.652 87.6344625 289805.018 -543772.94 253967.918 2.92114875
 321500     .3215  -250850.21 265751.514 116.901101 265634.613 -516601.72 250967.108 3.89670337
 322000      .322  -243496.81  237139.39 144.428228 236994.962  -480636.2 243641.237 4.81427427
 322500     .3225  -231927.41 204527.966 169.862461 204358.103 -436455.37 232097.268 5.66208204
 323000      .323   -216337.6 168466.426 193.139622 168273.287 -384804.02 216530.736 6.43798739
 323500     .3235  -197017.49 129581.449   214.1559 129367.293 -326598.93 197231.642 7.13852999
 324000      .324  -174333.72  88558.043 232.558521 88325.4845 -262891.76 174566.276  7.7519507
 324500     .3245  -148703.73 46113.2557 247.790787 45865.4649 -194816.99 148951.526  8.2596929
 325000      .325  -120575.22 2972.77112 259.283141 2713.48798 -123547.99 120834.505 8.64277138
 325500     .3255  -90417.863 -40143.749 266.710438  -40410.46 -50274.114 90684.5734 8.89034794
 326000      .326  -58732.708  -82522.56 270.139991   -82792.7  23789.852 59002.8484 9.00466635
 326500     .3265  -26065.107 -123450.35 269.871357 -123720.22 97385.2423 26334.9779  8.9957119
 327000      .327  7001.51278 -162221.98  266.12209  -162488.1 169223.493 -6735.3907 8.87073632
 327500     .3275  39871.0165 -198163.13 258.887756 -198422.01 238034.143 -39612.129 8.62959188
 328000      .328  71962.1917 -230655.07 248.026629  -230903.1  302617.26 -71714.165 8.26755428
 328500     .3285  102728.349  -259153.7 233.455369 -259387.16 361882.051 -102494.89 7.78184563
 329000      .329  131662.679 -283197.38 215.371484 -283412.75 414860.058 -131447.31 7.17904946
 329500     .3295    158287.9 -302400.58 194.317998 -302594.89 460688.477 -158093.58 6.47726661
 330000       .33  182147.246 -316445.83 170.966278 -316616.79 498593.073 -181976.28 5.69887593
[...]

                   647373.426 -677012.97 -714294.56 .1130454E7 -997385.95 -.115594E7 2421.09164
Times of maxima :     .018376    .713765    .003358     .00457    .006479    .002811    .713882
             Random switching times for simulation number  296  :
                                   1  5.5801796E-02    2  5.4258744E-02    3  5.4176209E-02    4  1.0357663E-02    5  6.9853327E-01
                                   6  6.9869586E-01    7  6.9958808E-01

                   649862.491 -715694.28 -714294.56 .1130454E7 -997385.95 -.115594E7 2483.50147
Times of maxima :      .01824    .713955    .003358     .00457    .006479    .002811     .71378
             Random switching times for simulation number  297  :
                                   1  5.6055230E-02    2  5.4163897E-02    3  5.4929744E-02    4  9.5205641E-03    5  7.0046628E-01
                                   6  6.9931070E-01    7  6.9985771E-01

                   645448.984 -664982.67 -714294.56 .1130454E7 -997385.95 -.115594E7 2536.50708
Times of maxima :     .018207     .71397    .003358     .00457    .006479    .002811    .014537
             Random switching times for simulation number  298  :
                                   1  5.4402657E-02    2  5.4726493E-02    3  5.5809066E-02    4  1.1302849E-02    5  6.9999931E-01
                                   6  6.9999918E-01    7  7.0135056E-01

                   643699.002 -676339.34 -714294.56 .1130454E7 -997385.95 -.115594E7 2483.53416
Times of maxima :     .018421    .714008    .003358     .00457    .006479    .002811    .713828
             Random switching times for simulation number  299  :
                                   1  5.4359107E-02    2  5.5309833E-02    3  5.5354775E-02    4  9.7516764E-03    5  7.0067447E-01
                                   6  7.0174165E-01    7  7.0054964E-01

                   647620.127 -679760.29 -714294.56 .1130454E7 -997385.95 -.115594E7 2422.38445
Times of maxima :     .018196    .713747    .003358     .00457    .006479    .002811     .71378
             Random switching times for simulation number  300  :
                                   1  5.6212631E-02    2  5.5400460E-02    3  5.4330646E-02    4  9.8967378E-03    5  7.0009595E-01
                                   6  7.0031249E-01    7  6.9985806E-01

                   648752.571 -671330.91 -714294.56 .1130454E7 -997385.95 -.115594E7 2476.01826
Times of maxima :     .018218    .713978    .003358     .00457    .006479    .002811    .713846

 MAIN20 dumps OVER12 dice seed  SEEDSV =   3.0444871000000000E+09

Statistical output of  node  voltage   0.4287E+06 |              X0003AX0003BX0003C

1 ) -------------------------------------------------------------------------------------------------------------------------------
Statistical distribution of peak voltage at node  "X0003A".   The base voltage for per unit printout is  V-base = 4.28660705E+05
  Interval             voltage         voltage  in     Frequency    Cumulative               Per cent
    number         in per unit      physical units     (density)     frequency     .GE. current value
        29           1.4500000      6.21558022E+05             0             0          100.000000
        30           1.5000000      6.42991058E+05            18            18           94.000000
        31           1.5500000      6.64424093E+05           259           277            7.666667
        32           1.6000000      6.85857128E+05             7           284            5.333333
        33           1.6500000      7.07290163E+05            11           295            1.666667
        34           1.7000000      7.28723199E+05             5           300             .000000
Summary of preceding table follows:       Grouped data     Ungrouped data
                                 Mean = 1.52933333E+00     1.51725992E+00
                             Variance = 9.34336678E-04     9.20172987E-04
                   Standard deviation = 3.05669213E-02     3.03343532E-02

2 ) -------------------------------------------------------------------------------------------------------------------------------
Statistical distribution of peak voltage at node  "X0003B".   The base voltage for per unit printout is  V-base = 4.28660705E+05
  Interval             voltage         voltage  in     Frequency    Cumulative               Per cent
    number         in per unit      physical units     (density)     frequency     .GE. current value
        29           1.4500000      6.21558022E+05             0             0          100.000000
        30           1.5000000      6.42991058E+05             2             2           99.333333
        31           1.5500000      6.64424093E+05            67            69           77.000000
        32           1.6000000      6.85857128E+05           126           195           35.000000
        33           1.6500000      7.07290163E+05            74           269           10.333333
        34           1.7000000      7.28723199E+05            24           293            2.333333
        35           1.7500000      7.50156234E+05             2           295            1.666667
        36           1.8000000      7.71589269E+05             0           295            1.666667
        37           1.8500000      7.93022304E+05             0           295            1.666667
        38           1.9000000      8.14455340E+05             0           295            1.666667
        39           1.9500000      8.35888375E+05             0           295            1.666667
        40           2.0000000      8.57321410E+05             2           297            1.000000
        41           2.0500000      8.78754445E+05             3           300             .000000
Summary of preceding table follows:       Grouped data     Ungrouped data
                                 Mean = 1.59166667E+00     1.59138585E+00
                             Variance = 5.02229654E-03     5.01227722E-03
                   Standard deviation = 7.08681631E-02     7.07974379E-02

3 ) -------------------------------------------------------------------------------------------------------------------------------
  SUMMARY   SUMMARY   SUMMARY   SUMMARY   SUMMARY   SUMMARY   SUMMARY   SUMMARY   SUMMARY   SUMMARY   SUMMARY   SUMMARY   SUMMARY
3 ) -------------------------------------------------------------------------------------------------------------------------------
The following is a distribution of peak overvoltages among all output nodes of the last data card that have the same base voltage.
This distribution is for the maximum of the peaks at all output nodes with  V-base = 4.28660705E+05
  Interval             voltage         voltage  in     Frequency    Cumulative               Per cent
    number         in per unit      physical units     (density)     frequency     .GE. current value
        33           1.6500000      7.07290163E+05             0             0          100.000000
        34           1.7000000      7.28723199E+05           293           293            2.333333
        35           1.7500000      7.50156234E+05             2           295            1.666667
        36           1.8000000      7.71589269E+05             0           295            1.666667
        37           1.8500000      7.93022304E+05             0           295            1.666667
        38           1.9000000      8.14455340E+05             0           295            1.666667
        39           1.9500000      8.35888375E+05             0           295            1.666667
        40           2.0000000      8.57321410E+05             2           297            1.000000
        41           2.0500000      8.78754445E+05             3           300             .000000
Summary of preceding table follows:       Grouped data     Ungrouped data
                                 Mean = 1.68083333E+00     1.67291371E+00
                             Variance = 1.81368450E-03     2.01363901E-03
                   Standard deviation = 4.25873749E-02     4.48735892E-02

Statistical output of branch voltage   0.4287E+06 |-1            X0003BX0003CX0003AX0003BX0003CX0003A

4 ) -------------------------------------------------------------------------------------------------------------------------------
Statistical distribution of peak voltage  for branch  "X0003A"  to  "X0003B".   Base voltage  for per unit output = 4.28660705E+05
  Interval             voltage         voltage  in     Frequency    Cumulative               Per cent
    number         in per unit      physical units     (density)     frequency     .GE. current value
        46           2.3000000      9.85919622E+05             0             0          100.000000
        47           2.3500000      1.00735266E+06           291           291            3.000000
        48           2.4000000      1.02878569E+06             0           291            3.000000
        49           2.4500000      1.05021873E+06             0           291            3.000000
        50           2.5000000      1.07165176E+06             0           291            3.000000
        51           2.5500000      1.09308480E+06             1           292            2.666667
        52           2.6000000      1.11451783E+06             2           294            2.000000
        53           2.6500000      1.13595087E+06             4           298             .666667
        54           2.7000000      1.15738390E+06             1           299             .333333
        55           2.7500000      1.17881694E+06             1           300             .000000
Summary of preceding table follows:       Grouped data     Ungrouped data
                                 Mean = 2.33383333E+00     2.33547395E+00
                             Variance = 2.62238016E-03     2.53684644E-03
                   Standard deviation = 5.12091804E-02     5.03671167E-02

5 ) -------------------------------------------------------------------------------------------------------------------------------
  SUMMARY   SUMMARY   SUMMARY   SUMMARY   SUMMARY   SUMMARY   SUMMARY   SUMMARY   SUMMARY   SUMMARY   SUMMARY   SUMMARY   SUMMARY
5 ) -------------------------------------------------------------------------------------------------------------------------------
A distribution of peak values among all output branches of the last data card that have the same base value follows.  This
statistical distribution is for the maximum of the peaks at all of these output branches having base  voltage  = 4.28660705E+05
  Interval             voltage         voltage  in     Frequency    Cumulative               Per cent
    number         in per unit      physical units     (density)     frequency     .GE. current value
        53           2.6500000      1.13595087E+06             0             0          100.000000
        54           2.7000000      1.15738390E+06           299           299             .333333
        55           2.7500000      1.17881694E+06             1           300             .000000
Summary of preceding table follows:       Grouped data     Ungrouped data
                                 Mean = 2.67516667E+00     2.69665855E+00
                             Variance = 8.33333333E-06     8.01888190E-08
                   Standard deviation = 2.88675135E-03     2.83176304E-04

Blank card ends statistical tabulation requests.  |BLANK STATISTICS

                                      Sample curve symbols : "A", "B", and "C"
                                      Theoretical curve symbol : "*"
                                      Common curve symbol : "X"

        Switch  "X0001B"  to  "X0002B"            Switch  "X0001A"  to  "X0002A"            Switch  "X0001C"  to  "X0002C"
1.32420000E+00   switchings per column          1.32420000E+00   switchings per column     1.32420000E+00   switchings per column
              Columns                                     Columns                                     Columns
          5   10   15   20   25   30                5   10   15   20   25   30                5   10   15   20   25   30
     +----+----+----+----+----+----+           +----+----+----+----+----+----+           +----+----+----+----+----+----+
    X                                         X                                         X
    X                                         X                                         X
    X                                         X                                         X
    *A                                        X                                         X
    |*A                                       B*                                        |*C
    |A*                                       | X                                       | X
    |   X                                     | B *                                     |   *  C
    |       X                                 |       X                                 |     C *
    |      A    *                             |           *B                            |       C   *
    |                 * A                     |                 *    B                  |                 *  C
    |                       *     A           |                       X                 |                       *    C
    |                      A    *             |                           *   B         |                    C      *
    |  5.5000E-02                 *     A     |  5.5000E-02              B  *           |  5.5000E-02                 *     C
    |                           *      A      |                         B *             |                         C *
    |                  A    *                 |                       * B               |                       *     C
    |               A *                       |                B*                       |            C    *
    |         A *                             |          B*                             |        C  *
    |       * A                               |       X                                 |       *  C
    |  A*                                     |   X                                     | C *
    | *A                                      | X                                       | X
    |X                                        |X                                        |*C
    X                                         *B                                        X
    X                                         X                                         X
    X                                         X                                         *C
    X                                         X                                         X
   Time (scale = 3.33333333E-04  Sec/line)   Time (scale = 3.33333333E-04  Sec/line)   Time  (scale = 3.33333333E-04  Sec/line)

        Switch  "X0003C"  to  "XX0009"            Switch  "X0001B"  to  "X0002B"            Switch  "X0001A"  to  "X0002A"
1.32420000E+00   switchings per column          1.32420000E+00   switchings per column     1.32420000E+00   switchings per column
              Columns                                     Columns                                     Columns
          5   10   15   20   25   30                5   10   15   20   25   30                5   10   15   20   25   30
     +----+----+----+----+----+----+           +----+----+----+----+----+----+           +----+----+----+----+----+----+
    X                                         X                                         X
    X                                         X                                         X
    X                                         X                                         X
    *A                                        X                                         * C
    |X                                        |X                                        |*C
    | *A                                      | X                                       | X
    |  A*                                     |  B*                                     |   X
    |      A*                                 |    B  *                                 |     C *
    |         A *                             |           *  B                          |          C*
    |                 * A                     |                B*                       |                 X
    |                       *     A           |                       *    B            |                       X
    |                           *    A        |                           *B            |                           * C
    |  1.0000E-02                 *A          |  7.0000E-01                 *   B       |  7.0000E-01                C*
    |                           *   A         |                           *  B          |                           *  C
    |                A      *                 |                   B   *                 |                    C  *
    |                 * A                     |            B    *                       |                 X
    |           X                             |         B *                             |           * C
    |     A *                                 |     B *                                 |       X
    A   *                                     |   *  B                                  |   *C
    A *                                       | X                                       C *
    A*                                        |*B                                       |*C
    *A                                        *B                                        X
    X                                         X                                         X
    X                                         *B                                        X
    X                                         X                                         X
   Time (scale = 3.33333333E-04  Sec/line)   Time (scale = 3.33333333E-04  Sec/line)   Time  (scale = 3.33333333E-04  Sec/line)

   Switch  "X0001C"  to  "X0002C"
     1.32420000E+00   switchings per column
              Columns
          5   10   15   20   25   30
     +----+----+----+----+----+----+
    X
    X
    *A
    X
    |X
    |A*
    | A *
    |       X
    |           *    A
    |          A      *
    |                       *    A
    |                         A *
    |  7.0000E-01                A*
    |                          A*
    |                       X
    |                 *  A
    |           *       A
    |    A  *
    |   X
    A *
    A*
    *A
    X
    *A
    X
   Time (scale = 3.33333333E-04  Sec/line)
 .... Questionable Kolmogorov-Smirnov test result = 4.79983461E-01
 .... Questionable Kolmogorov-Smirnov test result = 8.61125218E-01
 .... Questionable Kolmogorov-Smirnov test result = 6.22920778E-01
 .... Questionable Kolmogorov-Smirnov test result = 8.70941508E-02
 .... Questionable Kolmogorov-Smirnov test result = 7.08509700E-01
 .... Questionable Kolmogorov-Smirnov test result = 9.61921384E-01
 .... Questionable Kolmogorov-Smirnov test result = 7.92096056E-01

Actual List Sizes for the preceding solution follow.       11-Nov-18  11.00.00
   Size  1-10:    27    26    38     3   138    13    42  5310     0     0
   Size 11-20:     0     7 -9999 -9999 -9999     0     0     0    23  2972
   Size 21-30:    36   180 14781     0 -9999     9 -9999 -9999 -9999     0
Seconds for overlays  1-5  :     0.000     0.000     0.000  -- (CP: Wait; Real)
Seconds for overlays  6-11 :     0.000     0.000     0.000
Seconds for overlays 12-15 :     0.000     0.000     0.000
Seconds for time-step loop :     0.000     0.000     0.000
Seconds after DELTAT-loop  :     0.000     0.000     0.000
                               ---------------------------
                   Totals  :     0.000     0.000     0.000

