   ---   55   cards of disk file read into card cache cells  1   onward.
 <===> Done with  "/"-card sorting by data class.    Remember that the source file appears different from interpreted input data.
Alternative Transients Program (ATP),  F77 GNU Linux or DOS.  All rights reserved by Can/Am user group of Portland, Oregon, USA.
 Date (dd-mth-yy) and time of day (hh.mm.ss) = 11-Nov-18  11.00.00    Name of disk plot file, if any, is
Consult the 860-page ATP Rule Book of the Can/Am EMTP User Group in Portland,  Oregon, USA.  Source code date is
Total size of LABCOM tables = 16446853 INTEGER words.  31 VARDIM  List Sizes follow:  6002  10K  192K  900  420K  1200  15K
  120K  2250  3800  720  2K  72800  510  800K  800  90  254  800K  100K  3K  15K  192K  120  45K  260K  600  210K  1100  19  200K
--------------------------------------------------+--------------------------------------------------------------------------------
Descriptive interpretation of input data cards.   |  Input data card images are shown below, all 80 columns, character by character
                                                  0         1         2         3         4         5         6         7         8
                                                  012345678901234567890123456789012345678901234567890123456789012345678901234567890
--------------------------------------------------+--------------------------------------------------------------------------------
Comment card.   KOMPAR > 0.                       |C data:Caso0_ReEnergizacao_OTIMIZADA_SemControle.atp
Marker card preceding new EMTP data case.         |BEGIN NEW DATA CASE
Comment card.   KOMPAR > 0.                       |C $DUMMY, XYZ000
Misc. data.     1.000E-06   1.000E+00   0.000E+00 |   1.E-6      1.
Misc. data.  500  1  0  0  1  0  0  1  300  0     |     500       1       0       0       1       0       0       1     300
Statistics data.      1    1    0    0    1    0  |       1       1       0       0       1      -1                               0
Series R-L-C.   5.000E+00  7.500E-02  0.000E+00   |  X0001AX0007A                5.   75.                                         0
Series R-L-C.   5.000E+00  7.500E-02  0.000E+00   |  X0001BX0007B                5.   75.                                         0
Series R-L-C.   5.000E+00  7.500E-02  0.000E+00   |  X0001CX0007C                5.   75.                                         0
Series R-L-C.   2.000E+02  0.000E+00  0.000E+00   |  X0007AX0001A              200.                                               0
Series R-L-C.   2.000E+02  0.000E+00  0.000E+00   |  X0007BX0001B              200.                                               0
Series R-L-C.   2.000E+02  0.000E+00  0.000E+00   |  X0007CX0001C              200.                                               0
Series R-L-C.   1.321E+00  1.401E+00  0.000E+00   |  X0003BXX0008            1.32071401.3                                         0
Series R-L-C.   1.321E+00  1.401E+00  0.000E+00   |  X0003AXX0008            1.32071401.3                                         0
Series R-L-C.   1.321E+00  1.401E+00  0.000E+00   |  X0003CXX0008            1.32071401.3                                         0
Series R-L-C.   3.900E-01  4.138E-01  0.000E+00   |  XX0008                     .39 413.8                                         0
Series R-L-C.   3.000E+01  0.000E+00  0.000E+00   |  XX0009                     30.                                               0
Series R-L-C.   9.000E+02  0.000E+00  0.000E+00   |  X0002AX0010A              900.                                               0
Series R-L-C.   9.000E+02  0.000E+00  0.000E+00   |  X0002BX0010B              900.                                               0
Series R-L-C.   9.000E+02  0.000E+00  0.000E+00   |  X0002CX0010C              900.                                               0
Dynamic $INCLUDE uses fixed RAM cache to delay.   |$INSERT, C:\SimulacaoATP\EXT1.pch
J. Marti line, mode  1   parameters begin.        |-1X0010AX0005C                2.  0.00              -2 3
J. Marti line, mode  2   parameters begin.        |-2X0010BX0005A                2.  0.00              -2 3
J. Marti line, mode  3   parameters begin.        |-3X0010CX0005B                2.  0.00              -2 3
TR(1,1 )...  0.671-0.707-0.324                    |  0.67102882 -0.70710678 -0.32400803
TI(1,1 )...  0.000 0.000 0.003                    |  0.00000000  0.00000000  0.00341127
TR(2,1 )...  0.315 0.000 0.889                    |  0.31480489  0.00000000  0.88876566
TI(2,1 )... -0.018 0.000 0.010                    | -0.01839933  0.00000000  0.01048452
TR(3,1 )...  0.671 0.707-0.324                    |  0.67102882  0.70710678 -0.32400803
TI(3,1 )...  0.000 0.000 0.003                    |  0.00000000  0.00000000  0.00341127
Dynamic $INCLUDE uses fixed RAM cache to delay.   |$INSERT, C:\SimulacaoATP\OTIM2.pch
J. Marti line, mode  1   parameters begin.        |-1X0004AX0006C                2.  0.00              -2 3
J. Marti line, mode  2   parameters begin.        |-2X0004BX0006A                2.  0.00              -2 3
J. Marti line, mode  3   parameters begin.        |-3X0004CX0006B                2.  0.00              -2 3
TR(1,1 )...  0.671-0.707-0.324                    |  0.67102882 -0.70710678 -0.32400803
TI(1,1 )...  0.000 0.000 0.003                    |  0.00000000  0.00000000  0.00341127
TR(2,1 )...  0.315 0.000 0.889                    |  0.31480489  0.00000000  0.88876566
TI(2,1 )... -0.018 0.000 0.010                    | -0.01839933  0.00000000  0.01048452
TR(3,1 )...  0.671 0.707-0.324                    |  0.67102882  0.70710678 -0.32400803
TI(3,1 )...  0.000 0.000 0.003                    |  0.00000000  0.00000000  0.00341127
Dynamic $INCLUDE uses fixed RAM cache to delay.   |$INSERT, C:\SimulacaoATP\OTIM3.pch
J. Marti line, mode  1   parameters begin.        |-1X0005AX0004C                2.  0.00              -2 3
J. Marti line, mode  2   parameters begin.        |-2X0005BX0004A                2.  0.00              -2 3
J. Marti line, mode  3   parameters begin.        |-3X0005CX0004B                2.  0.00              -2 3
TR(1,1 )...  0.671-0.707-0.324                    |  0.67102882 -0.70710678 -0.32400803
TI(1,1 )...  0.000 0.000 0.003                    |  0.00000000  0.00000000  0.00341127
TR(2,1 )...  0.315 0.000 0.889                    |  0.31480489  0.00000000  0.88876566
TI(2,1 )... -0.018 0.000 0.010                    | -0.01839933  0.00000000  0.01048452
TR(3,1 )...  0.671 0.707-0.324                    |  0.67102882  0.70710678 -0.32400803
TI(3,1 )...  0.000 0.000 0.003                    |  0.00000000  0.00000000  0.00341127
Dynamic $INCLUDE uses fixed RAM cache to delay.   |$INSERT, C:\SimulacaoATP\EXT4.pch
J. Marti line, mode  1   parameters begin.        |-1X0006AX0003A                2.  0.00              -2 3
J. Marti line, mode  2   parameters begin.        |-2X0006BX0003B                2.  0.00              -2 3
J. Marti line, mode  3   parameters begin.        |-3X0006CX0003C                2.  0.00              -2 3
TR(1,1 )...  0.671-0.707-0.324                    |  0.67102882 -0.70710678 -0.32400803
TI(1,1 )...  0.000 0.000 0.003                    |  0.00000000  0.00000000  0.00341127
TR(2,1 )...  0.315 0.000 0.889                    |  0.31480489  0.00000000  0.88876566
TI(2,1 )... -0.018 0.000 0.010                    | -0.01839933  0.00000000  0.01048452
TR(3,1 )...  0.671 0.707-0.324                    |  0.67102882  0.70710678 -0.32400803
TI(3,1 )...  0.000 0.000 0.003                    |  0.00000000  0.00000000  0.00341127
Blank card ending branches.  IBR, NTOT = 26  27   |BLANK BRANCH
Switch.   5.50E-02  1.00E-03  0.00E+00  3.33E+03  |  X0001BX0002B      .055      .001               3333.STATISTICS               0
Switch.   5.50E-02  1.00E-03  0.00E+00  3.33E+03  |  X0001AX0002A      .055      .001               3333.STATISTICS               0
Switch.   5.50E-02  1.00E-03  0.00E+00  3.33E+03  |  X0001CX0002C      .055      .001               3333.STATISTICS               0
Switch.   1.00E-02  1.00E-03  0.00E+00  0.00E+00  |  X0003CXX0009       .01      .001                    STATISTICS               1
Switch.   7.00E-01  1.00E-03  0.00E+00  0.00E+00  |  X0001BX0002B        .7      .001                    STATISTICS               0
Switch.   7.00E-01  1.00E-03  0.00E+00  0.00E+00  |  X0001AX0002A        .7      .001                    STATISTICS               0
Switch.   7.00E-01  1.00E-03  0.00E+00  0.00E+00  |  X0001CX0002C        .7      .001                    STATISTICS               0
Switch.   0.00E+00  6.98E-01  0.00E+00  0.00E+00  |  X0002AX0010A                .698                                             0
Switch.   0.00E+00  6.98E-01  0.00E+00  0.00E+00  |  X0002BX0010B                .698                                             0
Switch.   0.00E+00  6.98E-01  0.00E+00  0.00E+00  |  X0002CX0010C                .698                                             0
Switch.   7.10E-01  0.00E+00  0.00E+00  0.00E+00  |  X0002AX0010A       .71                                                       0
Switch.   7.10E-01  0.00E+00  0.00E+00  0.00E+00  |  X0002BX0010B       .71                                                       0
Switch.   7.10E-01  0.00E+00  0.00E+00  0.00E+00  |  X0002CX0010C       .71                                                       0
Blank card ending switches.   KSWTCH = 13.        |BLANK SWITCH
Source.   4.29E+05  6.00E+01  0.00E+00 -1.00E+00  |14X0007A  428660.705       60.                                     -1.      100.
Source.   4.29E+05  6.00E+01 -1.20E+02 -1.00E+00  |14X0007B  428660.705       60.     -120.                           -1.      100.
Source.   4.29E+05  6.00E+01 -2.40E+02 -1.00E+00  |14X0007C  428660.705       60.     -240.                           -1.      100.
Blank card ends electric sources.  KCONST = 3     |BLANK SOURCE

     Total network loss  P-loss  by summing injections =   2.330347229787E+08

Card of names for time-step loop output.          |  X0003AX0003BX0003C
Output voltage differences for pairs of A6 names  |-5X0003BX0003CX0003AX0003BX0003CX0003A
Blank card ending requests for output variables.  |BLANK OUTPUT

Column headings for the  7   EMTP output variables follow.  These are divided among the 5 possible classes as follows ....
  First  6     output variables are electric-network voltage differences (upper voltage minus lower voltage);
  Next   1     output variables are branch currents (flowing from the upper node to the lower node);
   Step      Time      X0003A     X0003B     X0003C     X0003B     X0003A     X0003C     X0003C
                                                        X0003C     X0003B     X0003A     XX0009
 ***      Phasor I(0) = -5.3872964E+00                     Switch  "X0001B"  to  "X0002B"  closed in the steady-state.
 ***      Phasor I(0) =  3.6351502E+02                     Switch  "X0001A"  to  "X0002A"  closed in the steady-state.
 ***      Phasor I(0) = -3.5501579E+02                     Switch  "X0001C"  to  "X0002C"  closed in the steady-state.
 ***                    Switch  "X0002A"  to  "X0010A"  closed  after  0.00000000E+00  sec.
 ***                    Switch  "X0002B"  to  "X0010B"  closed  after  0.00000000E+00  sec.
 ***                    Switch  "X0002C"  to  "X0010C"  closed  after  0.00000000E+00  sec.
      0       0.0  104384.478 -220825.36  113071.85 -333897.21 325209.838 8687.37237        0.0
    500     .5E-3  138342.688 -217110.61 76557.4444 -293668.05 355453.294 -61785.243        0.0
   1000     .1E-2  168012.811 -206026.87 36838.9562 -242865.83  374039.68 -131173.85        0.0
   1500     .0015  190926.003 -187901.69 -4083.7556 -183817.94 378827.694 -195009.76        0.0
   2000      .002  553773.556 -147915.25 -467319.91 319404.659 701688.811 -.102109E7        0.0
   2500     .0025   574360.66 -7891.1958 -598219.25 590328.055 582251.856 -.117258E7        0.0
   3000      .003  525783.697 124399.127 -690302.73 814701.853  401384.57 -.121609E7        0.0
   3500     .0035  440602.828  240320.52  -724156.3 964476.822 200282.308 -.116476E7        0.0
   4000      .004  334674.498  365148.96 -692852.98 .1058002E7 -30474.462 -.102753E7        0.0
   4500     .0045  212642.021 480313.849 -644653.19 .1124967E7 -267671.83 -857295.21        0.0
   5000      .005   63793.566  565332.71 -572107.24  .113744E7 -501539.14  -635900.8        0.0
   5500     .0055  -205855.05  615858.93 -363708.99 979567.916 -821713.98 -157853.94        0.0
   6000      .006  -438137.64 601020.973 -132816.59 733837.564 -.103916E7 305321.045        0.0
   6500     .0065   -574481.1 550829.791 69511.6197 481318.172 -.112531E7  643992.72        0.0
   7000      .007  -648336.04  474658.06 234207.283 240450.777 -.112299E7 882543.325        0.0
   7500     .0075  -680254.91 380876.529 344676.494  36200.035 -.106113E7 .1024931E7        0.0
   8000      .008   -674962.3 266305.114 417321.447 -151016.33 -941267.42 .1092284E7        0.0
   8500     .0085  -636699.46 136251.991 466577.658 -330325.67 -772951.45 .1103277E7        0.0
   9000      .009  -535015.42 9223.79566  460943.64 -451719.84 -544239.22 995959.064        0.0
   9500     .0095  -384343.51 -96792.247 404545.747 -501337.99 -287551.26 788889.254        0.0
  10000       .01  -244197.08 -174057.54 339943.196 -514000.74 -70139.539 584140.278        0.0
 ***                                                             Close switch  "X0003C"  to  "XX0009"  after  1.00010000E-02  sec.
  10500     .0105  -213679.58  -310701.9 29221.0885 -339922.99 97022.3275 242900.666 974.036283
  11000      .011  -113476.85  -344977.2 26647.0924 -371624.29 231500.356 140123.938 888.236412
  11500     .0115  -39666.929 -375152.67 26259.2435 -401411.91 335485.739 65926.1726 875.308116
  12000      .012  8032.00107 -401857.58 28911.9734 -430769.55 409889.579 20879.9723 963.732446
  12500     .0125  39183.3053 -408114.93 31471.4355 -439586.37 447298.235 -7711.8699 1049.04785
  13000      .013  51618.1931 -414229.03 34686.0594 -448915.09 465847.222 -16932.134 1156.20198
  13500     .0135  14139.3765  -432535.1 39051.7753 -471586.88 446674.479 24912.3988 1301.72584
  14000      .014  -45231.466 -523064.05 52766.9413 -575830.99 477832.581 97998.4076 1758.89804
  14500     .0145  36157.5781 -493630.44 63799.5164 -557429.95 529788.016 27641.9382 2126.65055
  15000      .015  128894.807 -446024.92 67058.8215 -513083.74 574919.725 -61835.986 2235.29405
  15500     .0155  213225.502 -402628.41 61424.8279 -464053.24 615853.916 -151800.67 2047.49426
  16000      .016  305195.377 -353035.72 51771.7297 -404807.45 658231.095 -253423.65 1725.72432
  16500     .0165  406563.827 -285096.33  40349.337 -325445.67 691660.161 -366214.49  1344.9779
  17000      .017  511693.756 -192822.95 27058.1002 -219881.05  704516.71 -484635.66 901.936673
  17500     .0175  602496.635 -76841.218 12988.1944 -89829.413 679337.853 -589508.44 432.939814
  18000      .018  653259.259 57103.3452 3455.27968 53648.0655 596155.914 -649803.98 115.175989
  18500     .0185  667682.786 199165.249 -949.98631 200115.236 468517.537 -668632.77  -31.66621
  19000      .019  640156.369 330379.484 -6991.7383 337371.222 309776.884 -647148.11 -233.05794
  19500     .0195  573242.774 448215.718 -15058.153 463273.871 125027.056 -588300.93 -501.93845
  20000       .02  467604.111 545613.917 -24164.732 569778.648 -78009.805 -491768.84 -805.49106
  20500     .0205  331443.713 616353.639 -33286.662   649640.3 -284909.93 -364730.37 -1109.5554
  21000      .021  176135.112 655517.209 -41966.813 697484.022  -479382.1 -218101.92 -1398.8938
  21500     .0215  11068.2266 654178.297 -49709.669 703887.966 -643110.07 -60777.895  -1656.989
  22000      .022  -154035.44 609845.449 -54722.566 664568.015 -763880.89 99312.8772 -1824.0855
  22500     .0225  -298620.39  539832.13 -56343.893 596176.023 -838452.52 242276.493 -1878.1298
  23000      .023  -411468.55  457085.99 -55012.261 512098.252 -868554.54 356456.285  -1833.742
  23500     .0235  -491993.58 364032.416 -51829.986 415862.402   -856026. 440163.598 -1727.6662
  24000      .024  -542053.82 262839.791 -47393.611 310233.402 -804893.61 494660.211  -1579.787
  24500     .0245  -563712.61 158457.703 -41832.235 200289.938 -722170.31 521880.374 -1394.4078
  25000      .025  -559870.11 57951.7492 -35325.133 93276.8822 -617821.86 524544.978 -1177.5044
  25500     .0255   -536444.2 -33750.571 -28068.528 -5682.0426 -502693.63 508375.675  -935.6176
  26000      .026  -500312.83 -115628.35 -19635.042 -95993.306 -384684.48 480677.786 -654.50141
  26500     .0265  -456202.14  -188750.2 -9540.3442 -179209.85 -267451.94 446661.793 -318.01147
  27000      .027  -407607.99 -255207.99 1820.02674 -257028.02   -152400.  409428.02 60.6675579
  27500     .0275  -356069.34 -315844.61 13572.4666 -329417.07 -40224.737  369641.81 452.415553
  28000      .028  -301676.19 -370742.92 24912.1971 -395655.12 69066.7282 326588.388  830.40657
  28500     .0285  -243425.17 -419680.14 35236.4102 -454916.55 176254.978 278661.575 1174.54701
  29000      .029  -179314.64 -462044.18 44038.4128 -506082.59 282729.538 223353.053 1467.94709
  29500     .0295  -108112.97 -496980.95 50891.7993 -547872.75 388867.983  159004.77 1696.39331
  30000       .03  -29877.175 -522668.47 55644.6217 -578313.09 492791.296 85521.7963 1854.82072
  30500     .0305  55377.3927 -535077.18 58378.4543 -593455.63 590454.571 3001.06158 1945.94848
  31000      .031  147212.667 -529132.75 59224.7314 -588357.48  676345.42 -87987.935 1974.15771
  31500     .0315  243184.198 -501086.91 58235.8451 -559322.76 744271.111 -184948.35 1941.19484
  32000      .032   338609.12  -449544.5 55405.5213 -504950.02  788153.62  -283203.6 1846.85071
  32500     .0325  427499.651 -375099.97  50762.567 -425862.54 802599.621 -376737.08 1692.08557
  33000      .033  503763.762 -279831.43 44389.3575 -324220.78 783595.187  -459374.4 1479.64525
  33500     .0335  561855.169 -167464.14  36423.864 -203888.01  729319.31 -525431.31  1214.1288
  34000      .034  597104.787 -43558.748  27140.077 -70698.825 640663.535 -569964.71 904.669234
  34500     .0345  606151.876 84886.4502 16967.4656 67918.9846 521265.426 -589184.41 565.582186
  35000      .035  587397.706  210224.18 6379.40693 203844.773 377173.526  -581018.3 212.646898
  35500     .0355  541363.769 325160.552 -4210.2807 329370.832 216203.217 -545574.05 -140.34269
  36000      .036  470665.047 423521.766 -14458.718 437980.485 47143.2806 -485123.77 -481.95728
  36500     .0365  379619.397 500642.008 -24063.717 524705.725 -121022.61 -403683.11  -802.1239
  37000      .037  273677.649 553556.187 -32754.374 586310.561 -279878.54 -306432.02 -1091.8125
  37500     .0375  158728.358 580998.209 -40298.897 621297.105 -422269.85 -199027.26 -1343.2966
  38000      .038  40550.1517 583309.169 -46489.526 629798.695 -542759.02 -87039.678 -1549.6509
  38500     .0385  -75433.009 562364.276 -51119.457 613483.734 -637797.28 24313.5512 -1703.9819
  39000      .039  -184345.81 521324.487 -53985.636 575310.123  -705670.3 130360.173 -1799.5212
  39500     .0395  -282170.76 464067.519 -54920.529 518988.048 -746238.27 227250.227 -1830.6843
  40000       .04  -366011.42 394520.718 -53828.769 448349.487 -760532.14 312182.653 -1794.2923
  40500     .0405  -434093.78  316202.17 -50706.449 366908.619 -750295.95 383387.335  -1690.215
  41000      .041  -485514.63 232048.267 -45646.554 277694.821  -717562.9  439868.08 -1521.5518
  41500     .0415  -519956.69 144398.493 -38835.918 183234.411 -664355.19 481120.775 -1294.5306
  42000      .042  -537505.33 55041.4133 -30537.266 85578.6791 -592546.74 506968.061 -1017.9089
  % % % % % %   Suspended simulation;  plot data space exhausted;  SPY SPACE is required.   LIMBUF =  340000.
  % % % % % %   Suspended simulation;  plot data space exhausted;  SPY SPACE is required.   LIMBUF =  340000.
  +++  Time-sharing disabled.   Send  user-keyed interrupt to silence alarm.
   Current values.  INDBUF  INDBEG  LIMBUF  MFLUSH  NUMDCD  KCARD1  KCARD2
                    339994      50  340000    1000      46       1      50
Plot timespan now in memory (in sec) = 0.00000000E+00   4.24930000E-02
   ++++  Begin plot-data copy from memory to disk.   MFLUSH, INDBUF, N4, Tbeg,  Tend = 1001  339994       1  -1.00000E+00
1.00000E+19
  42500     .0425  -538529.31  -34668.38  -21062.36  -13606.02 -503860.93 517466.954 -702.07868
  43000      .043  -523567.45  -123590.2 -10753.543 -112836.65 -399977.25 512813.907 -358.45142
  43500     .0435  -493225.38 -210491.82 22.3404827 -210514.16 -282733.56 493247.716 .744682756
  44000      .044  -448142.44 -293756.52 10879.0489 -304635.57 -154385.92 459021.488 362.634964
  44500     .0445  -389067.76 -371212.89 21422.9417 -392635.83 -17854.866   410490.7 714.098056
  45000      .045  -317013.68 -440135.99 31268.2087  -471404.2 123122.316 348281.885 1042.27362
  45500     .0455  -233427.21 -497412.97 40050.5095 -537463.48 263985.758  273477.72 1335.01698
  46000      .046  -140320.83 -539819.51  47441.155 -587260.67 399498.686 187761.982 1581.37183
  46500     .0465   -40319.26  -564338.2 53164.2472 -617502.44 524018.936 93483.5075 1772.14157
  47000      .047  63381.3311 -568482.92 57013.4067 -625496.32 631864.247 -6367.9244 1900.44689
  47500     .0475  167115.876 -550621.44 58862.1608  -609483.6 717737.318 -108253.71 1962.07203
  48000      .048   266899.16 -510266.89 58665.5576 -568932.45 777166.052  -208233.6 1955.51859
  48500     .0485  358627.748 -448272.06 56455.4666 -504727.53 806899.812 -302172.28 1881.84889
  49000      .049  438333.303  -366866.4 52332.8266 -419199.23 805199.702 -386000.48 1744.42755
  49500     .0495  502453.149 -269527.61 46458.7417 -315986.35 771980.757 -455994.41 1548.62472
  50000       .05  548071.361 -160726.29 39046.2054 -199772.49 708797.647 -509025.16 1301.54018
  50500     .0505  573100.996 -45590.852 30353.5428 -75944.395 618691.848 -542747.45 1011.78476
  51000      .051  576400.989  70471.391 20678.5115 49792.8795 505929.598 -555722.48 689.283716
  51500     .0515  557830.706 182166.865 10351.0123 171815.853 375663.841 -547479.69 345.033744
  52000      .052  518241.795 284683.352 -276.31982 284959.672 233558.443 -518518.11 -9.2106606
  52500     .0525  459405.628 373986.147 -10838.916 384825.063 85419.4809 -470244.54  -361.2972
  53000      .053   383882.99  447005.44 -20971.876 467977.315 -63122.449 -404854.87 -699.06253
  53500     .0535   294852.29 501701.667 -30322.385 532024.051 -206849.38 -325174.67 -1010.7462
  54000      .054  195917.729 537021.955 -38562.534 575584.488 -341104.23 -234480.26 -1285.4178
  54500     .0545  90919.1656 552778.329 -45401.362 598179.691 -461859.16 -136320.53 -1513.3787
  55000      .055  -16240.103 549482.374 -50595.053 600077.428 -565722.48  -34354.95 -1686.5018
  55500     .0555  -121740.43 528166.111 -53955.144 582121.254 -649906.54 67785.2903 -1798.5048
  56000      .056  -221967.31 490214.046 -55355.185  545569.23 -712181.35 166612.123 -1845.1728
  56500     .0565  -313608.27  437229.82 -54736.093 491965.912 -750838.09 258872.175 -1824.5364
  57000      .057  -393726.07 370956.608 -52109.862  423066.47 -764682.68 341616.211 -1736.9954
 ***                                                             Open  switch  "X0001B"  to  "X0002B"  after  5.70130000E-02  sec.
  57500     .0575  -459811.16 293257.863 -47561.083 340818.946 -753069.02 412250.074 -1585.3694
  58000      .058  -509820.27  206148.19 -41245.655 247393.845 -715968.46  468574.61 -1374.8552
  58500     .0585  -542209.19 111851.837 -33386.262 145238.099 -654061.03 508822.926 -1112.8754
  59000      .059  -562536.35 30159.8122 -25072.828 55232.6406 -592696.16 537463.522 -835.76095
 ***                                                             Open  switch  "X0001A"  to  "X0002A"  after  5.93070000E-02  sec.
  59500     .0595  -558883.54  -32863.39 -15497.296 -17366.093 -526020.15 543386.248 -516.57654
  60000       .06  -533088.84 -93594.154 -4849.8088 -88744.345 -439494.68 528239.028 -161.66029
 ***                                                             Open  switch  "X0001C"  to  "X0002C"  after  6.01620000E-02  sec.
  60500     .0605  -489823.75 -156393.44 5994.14549 -162387.58 -333430.31 495817.898  199.80485
  61000      .061  -431479.96  -220092.5 16712.7765 -236805.28 -211387.46 448192.741 557.092551
  61500     .0615  -395606.03 -280575.73 28518.7389 -309094.47 -115030.29 424124.766 950.624631
  62000      .062  -338716.95 -337668.72 36352.1743 -374020.89 -1048.2305  375069.12 1211.73914
  62500     .0625  -268016.09 -361803.11 35995.5272 -397798.64 93787.0219 304011.613 1199.85091
  63000      .063  -211828.12 -399492.36 30254.0539 -429746.42 187664.245  242082.17 1008.46846
  63500     .0635   -139081.7 -430521.24 23821.3468 -454342.59 291439.543 162903.044 794.044892
  64000      .064  -54026.799 -453143.64 17077.7009 -470221.35 399116.846 71104.4995 569.256697
  64500     .0645  31748.9675  -468421.1 9828.83359 -478249.94 500170.072 -21920.134 327.627786
  65000      .065  101263.054 -472434.41 2707.50727 -475141.92 573697.464 -98555.547 90.2502424
  65500     .0655  170715.735 -479570.79 -4251.5404 -475319.25  650286.52 -174967.27 -141.71801
  66000      .066  196639.029 -496759.99 -8991.0004 -487768.99 693399.016 -205630.03 -299.70001
  66500     .0665  233029.434  -503259.5 -9395.5355 -493863.97 736288.935 -242424.97 -313.18452
  67000      .067  287413.825 -491333.33 -8249.2835 -483084.04 778747.152 -295663.11 -274.97612
  67500     .0675  347123.181 -467195.69 -6007.3278 -461188.37 814318.874 -353130.51 -200.24426
  68000      .068  393204.186 -433039.01 -2507.7184 -430531.29 826243.198  -395711.9 -83.590613
  68500     .0685  428734.563 -386363.69 2095.81057  -388459.5 815098.254 -426638.75 69.8603523
  69000      .069  455610.043 -337391.32  7383.8102 -344775.13 793001.368 -448226.23 246.127007
  69500     .0695   460870.18 -283006.68 12932.6418 -295939.32  743876.86 -447937.54 431.088061
  70000       .07  480900.257 -217290.85 15550.1898 -232841.04 698191.106 -465350.07  518.33966
  70500     .0705  491353.386 -157100.56  15352.409 -172452.97 648453.944 -476000.98 511.746967
  71000      .071  496601.159 -96523.612 14201.1454 -110724.76 593124.771 -482400.01 473.371512
  71500     .0715  488235.636 -23923.792 12760.4286 -36684.221 512159.428 -475475.21 425.347622
  72000      .072  473825.261  54004.692 10577.1078 43427.5841 419820.569 -463248.15 352.570261
  72500     .0725  445475.921 128460.134 7781.80872 120678.325 317015.788 -437694.11 259.393624
  73000      .073  406064.623 199936.147  4694.6708 195241.476 206128.476 -401369.95 156.489027
  73500     .0735  358340.565 253749.419 1415.88315 252333.536 104591.146 -356924.68 47.1961049
  74000      .074  303153.812 294640.772 -384.67426 295025.447 8513.03992 -303538.49 -12.822475
  74500     .0745  251977.124  334600.02 -959.14278 335559.163 -82622.896 -252936.27 -31.971426
  75000      .075  192230.732 382487.047 -1155.7358 383642.783 -190256.31 -193386.47 -38.524527
  75500     .0755  129934.408 423304.721 -732.04373 424036.765 -293370.31 -130666.45 -24.401458
  76000      .076  60042.7689 459854.502 630.862793 459223.639 -399811.73 -59411.906 21.0287598
  76500     .0765  -7647.8602 487922.366 2606.88922 485315.476 -495570.23 10254.7494 86.8963075
  77000      .077  -74303.031 497768.525 5183.66041 492584.864 -572071.56  79486.691  172.78868
  77500     .0775   -131253.2 499625.884 7394.70518 492231.179 -630879.09 138647.906 246.490173
  78000      .078  -185185.25 493135.114 8482.88523 484652.229 -678320.37 193668.138 282.762841
  78500     .0785  -244313.06 485895.812 8819.99811 477075.814 -730208.87 253133.054 293.999937
  79000      .079  -296476.47 470431.824 8981.38232 461450.442 -766908.29 305457.852 299.379411
  79500     .0795  -345377.13 454928.231 8825.94728 446102.284 -800305.36 354203.074 294.198243
  80000       .08  -384534.44 428548.201 8117.11397 420431.087 -813082.64 392651.553 270.570466
  80500     .0805  -413928.47 388131.159 7127.52964 381003.629 -802059.63 421055.996 237.584321
  81000      .081  -434487.68 336319.551 5855.01463 330464.536 -770807.24 440342.699 195.167154
  81500     .0815  -455009.47 276054.424 4769.58001 271284.844 -731063.89 459779.049    158.986
  82000      .082  -471702.52 217965.682 4050.19535 213915.487  -689668.2 475752.715 135.006512
  82500     .0825  -476223.83 158216.026 3471.10584  154744.92 -634439.86 479694.939 115.703528
  83000      .083  -475280.93 101532.319 3003.18754 98529.1313 -576813.25 478284.121 100.106251
  83500     .0835  -462657.58 38556.5044 2942.71298 35613.7914 -501214.08 465600.292 98.0904325
  84000      .084   -437188.7 -28509.279 3374.22091   -31883.5 -408679.42 440562.916  112.47403
  84500     .0845  -404108.75 -99320.858 4257.92459 -103578.78 -304787.89 408366.676  141.93082
  % % % % % %   Suspended simulation;  plot data space exhausted;  SPY SPACE is required.   LIMBUF =  340000.
  % % % % % %   Suspended simulation;  plot data space exhausted;  SPY SPACE is required.   LIMBUF =  340000.
  +++  Time-sharing disabled.   Send  user-keyed interrupt to silence alarm.
   Current values.  INDBUF  INDBEG  LIMBUF  MFLUSH  NUMDCD  KCARD1  KCARD2
                    339994      50  340000    1001      46       1      50
Plot timespan now in memory (in sec) = 4.24919985E-02   8.49850000E-02
   ++++  Begin plot-data copy from memory to disk.   MFLUSH, INDBUF, N4, Tbeg,  Tend = 1002  339994       1  -1.00000E+00
1.00000E+19
  85000      .085  -369358.26  -165290.8 5302.84977 -170593.65 -204067.46 374661.111 176.761659
  85500     .0855  -330155.19 -224497.01 5964.63365 -230461.64 -105658.18 336119.826 198.821122
  86000      .086  -285216.78 -279371.84 6229.44449 -285601.28 -5844.9373 291446.222  207.64815
  86500     .0865   -236979.1 -326296.09 6364.27327 -332660.36 89316.9871 243343.375 212.142442
  87000      .087  -178688.24 -369854.74 6429.87468 -376284.62 191166.501 185118.118 214.329156
  87500     .0875  -112812.13 -408959.35 6313.68385 -415273.04 296147.227 119125.809 210.456128
  88000      .088  -45689.781 -444153.42 6103.87688  -450257.3 398463.637 51793.6582 203.462563
  88500     .0885  15585.0489  -468150.3 5663.04241 -473813.34  483735.35 -9922.0065  188.76808
  89000      .089   73221.074  -485291.4 5058.05372 -490349.45 558512.475  -68163.02 168.601791
  89500     .0895  127810.499 -493370.91 4468.04224 -497838.96 621181.413 -123342.46 148.934741
  90000       .09  181662.932 -491222.81 3897.20335 -495120.01 672885.743 -177765.73 129.906778
  90500     .0905  237863.768 -483014.44 3308.95828  -486323.4 720878.211 -234554.81 110.298609
  91000      .091  292229.707  -468884.1 2908.38816 -471792.49 761113.807 -289321.32 96.9462721
  91500     .0915  340791.612 -447755.79  2842.2446 -450598.04 788547.404 -337949.37 94.7414865
  92000      .092  377097.515 -415120.82 2960.25932 -418081.08 792218.336 -374137.26 98.6753107
  92500     .0925  405870.518 -376759.27 3211.44972 -379970.72 782629.786 -402659.07 107.048324
  93000      .093  425989.728  -330168.5  3413.0011 -333581.51 756158.233 -422576.73 113.766703
  93500     .0935  441063.891 -278619.71 3457.83814 -282077.55 719683.598 -437606.05 115.261271
  94000      .094  452725.745 -225138.44 3457.35963  -228595.8 677864.184 -449268.39 115.245321
  94500     .0945  458968.661 -168838.49 3568.93582 -172407.43 627807.152 -455399.72 118.964527
  95000      .095  456519.766 -108158.36 3705.10192 -111863.46 564678.125 -452814.66 123.503397
  95500     .0955  441070.401 -42203.657 3749.39995 -45953.057 483274.058   -437321. 124.979998
  96000      .096  418144.609 23062.2472 3688.56726 19373.6799 395082.362 -414456.04 122.952242
  96500     .0965  385622.343 88743.5469 3509.04465 85234.5023 296878.796  -382113.3 116.968155
  97000      .097  348925.553 150434.858 3261.68508 147173.173 198490.695 -345663.87 108.722836
  97500     .0975  310115.919 207249.612 3028.44312 204221.169 102866.307 -307087.48 100.948104
  98000      .098  268042.373 260177.672  2850.5197 257327.152 7864.70104 -265191.85 95.0173233
  98500     .0985  218805.882 310985.708 2716.11377 308269.595 -92179.826 -216089.77 90.5371257
  99000      .099  162377.736 359047.651 2667.18852 356380.463 -196669.92 -159710.55  88.906284
  99500     .0995  103655.154 400193.801  2703.6847 397490.116 -296538.65 -100951.47 90.1228234
 100000       0.1  41869.4852 435055.144 2807.28221 432247.861 -393185.66 -39062.203 93.5760737
 100500     .1005  -17447.591 459854.908 2922.70398 456932.204  -477302.5 20370.2946  97.423466
 101000      .101  -73304.079 474944.113 3033.19909 471910.914 -548248.19 76337.2782 101.106636
 101500     .1015  -127001.41 481626.986 3179.78267 478447.203 -608628.39 130181.189 105.992756
 102000      .102  -181871.75 483379.537 3361.90691  480017.63 -665251.29 185233.656 112.063564
 102500     .1025  -234825.43 479109.588 3543.30301 475566.285 -713935.02  238368.73   118.1101
 103000      .103  -283442.98 466717.871 3684.20554 463033.665 -750160.85 287127.189 122.806851
 103500     .1035  -327133.86 446457.477 3774.80766  442682.67 -773591.33 330908.664 125.826922
 104000      .104  -362257.19 415721.719 3801.84586 411919.873 -777978.91  366059.04 126.728195
 104500     .1045   -389224.1 376175.278  3809.5579  372365.72 -765399.38 393033.656 126.985263
 105000      .105  -409643.65 330283.059 3834.83183 326448.227 -739926.71  413478.48 127.827728
 105500     .1055  -426512.76 282499.809 3824.85721 278674.952 -709012.57 430337.617  127.49524
 106000      .106   -436369.6 231054.448 3762.77005 227291.678 -667424.04 440132.365 125.425668
 106500     .1065  -439094.77 176077.758 3695.55731 172382.201 -615172.53 442790.331 123.185244
 107000      .107  -433227.87 117607.192 3646.21778 113960.975 -550835.06 436874.083 121.540593
 107500     .1075  -417306.27 54517.2582 3621.51376 50895.7445 -471823.53 420927.786 120.717125
 108000      .108  -393094.46 -10754.227 3642.43963 -14396.667 -382340.23 396736.895 121.414654
 108500     .1085  -363284.63 -75213.892  3683.4052 -78897.297 -288070.74 366968.035 122.780173
 109000      .109  -330701.96 -135138.95 3681.01302 -138819.96 -195563.02 334382.977 122.700434
 109500     .1095  -292384.86 -192463.62 3649.93109 -196113.56 -99921.231 296034.787  121.66437
 110000       .11  -249386.06 -245711.32 3616.73777 -249328.06  -3674.733 253002.794 120.557926
 110500     .1105  -200394.52 -295697.55 3567.34834 -299264.89 95303.0252 203961.869 118.911611
 111000      .111  -145748.12 -342834.32 3513.09072 -346347.41 197086.197 149261.213 117.103024
 111500     .1115  -88239.438 -385082.75 3477.09525 -388559.85 296843.316 91716.5328 115.903175
 112000      .112  -31417.675 -419717.18 3432.13504 -423149.32 388299.509 34849.8098 114.404501
 112500     .1125  22950.2678 -444821.41 3336.67621 -448158.09  467771.68 -19613.592  111.22254
 113000      .113  77209.5508 -462465.59 3198.27016 -465663.86 539675.137 -74011.281 106.609005
 113500     .1135  130010.668 -471631.13 3028.66581  -474659.8 601641.799   -126982. 100.955527
 114000      .114  182411.103 -474244.97 2846.21615 -477091.18 656656.071 -179564.89 94.8738718
 114500     .1145  233438.715 -470545.74 2695.23557 -473240.98 703984.456 -230743.48 89.8411857
 115000      .115  280304.872 -459452.99  2602.4615 -462055.45 739757.859 -277702.41 86.7487166
 115500     .1155  319608.407  -439021.6 2528.11625 -441549.71 758630.003 -317080.29 84.2705415
 116000      .116  351324.502 -409638.11 2431.87891 -412069.99 760962.612 -348892.62 81.0626303
 116500     .1165  377303.792 -373594.82 2313.08193  -375907.9 750898.611 -374990.71  77.102731
 117000      .117  397069.653 -331095.77 2187.68472 -333283.46 728165.423 -394881.97  72.922824
 117500     .1175  412044.272 -284603.01 2078.25617 -286681.27 696647.282 -409966.02 69.2752056
 118000      .118  421423.199 -234473.22 2011.01575 -236484.23 655896.418 -419412.18 67.0338582
 118500     .1185   423124.67 -180512.36  1994.2521 -182506.61 603637.028 -421130.42 66.4750699
 119000      .119  414754.393 -121657.82 1983.11899 -123640.94 536412.211 -412771.27 66.1039663
 119500     .1195  398141.334 -60044.514 1950.98904 -61995.503 458185.848 -396190.35 65.0329678
 120000       .12  374974.213 2276.90861 1901.22536 375.683251 372697.304 -373072.99 63.3741786
 120500     .1205  346210.895 64218.0445 1843.80146 62374.2431  281992.85 -344367.09 61.4600486
 121000      .121  313638.309 123500.234 1791.99391  121708.24 190138.076 -311846.32 59.7331303
 121500     .1215  276771.891 179897.285 1773.23135 178124.054 96874.6057 -274998.66 59.1077116
 122000      .122  234417.079 233569.513 1798.23901 231771.274 847.565578 -232618.84 59.9413002
 122500     .1225  185561.528 285192.912 1830.37595 283362.536 -99631.384 -183731.15 61.0125318
 123000      .123  133263.445 332151.397  1853.5321 330297.865 -198887.95 -131409.91 61.7844034
 123500     .1235  79022.9261 373261.382 1870.74906 371390.633 -294238.46 -77152.177 62.3583021
 124000      .124  24705.8391 407349.284 1884.87281 405464.412 -382643.45 -22820.966 62.8290938
 124500     .1245  -28058.757 433140.471 1909.53261 431230.939 -461199.23 29968.2895 63.6510871
 125000      .125  -79654.057 451189.065 1971.66352 449217.401 -530843.12 81625.7204 65.7221174
 125500     .1255  -130907.96 462473.884 2064.80784 460409.076 -593381.85 132972.773  68.826928
 126000      .126  -181861.77 467729.778 2151.07613 465578.702 -649591.55 184012.848 71.7025377
 126500     .1265  -229416.72 464969.089 2220.93159 462748.158 -694385.81 231637.652 74.0310531
 127000      .127   -272609.7 454183.882 2279.37711 451904.505 -726793.58 274889.074 75.9792371
  % % % % % %   Suspended simulation;  plot data space exhausted;  SPY SPACE is required.   LIMBUF =  340000.
  % % % % % %   Suspended simulation;  plot data space exhausted;  SPY SPACE is required.   LIMBUF =  340000.
  +++  Time-sharing disabled.   Send  user-keyed interrupt to silence alarm.
   Current values.  INDBUF  INDBEG  LIMBUF  MFLUSH  NUMDCD  KCARD1  KCARD2
                    339994      50  340000    1002      46       1      50
Plot timespan now in memory (in sec) = 8.49839970E-02   1.27477000E-01
   ++++  Begin plot-data copy from memory to disk.   MFLUSH, INDBUF, N4, Tbeg,  Tend = 1003  339994       1  -1.00000E+00
1.00000E+19
 127500     .1275  -309678.59  434795.79 2327.75611 432468.034 -744474.38 312006.342 77.5918702
 128000      .128  -339836.15 406948.555 2378.97197 404569.583  -746784.7 342215.121 79.2990656
 128500     .1285  -363924.91 372170.831  2449.8917  369720.94 -736095.74   366374.8 81.6630568
 129000      .129  -383192.76 332393.791 2522.15451 329871.636 -715586.55 385714.911  84.071817
 129500     .1295  -397346.78 288461.956 2570.83159 285891.124 -685808.73 399917.607 85.6943863
 130000       .13  -404243.88 239456.821 2598.21572 236858.605  -643700.7 406842.093 86.6071906
 130500     .1305  -403718.57 186236.254 2612.12089 183624.133 -589954.82 406330.692 87.0706963
 131000      .131  -394900.56  128857.24 2615.21292 126242.027  -523757.8 397515.775 87.1737639
 131500     .1315  -378257.41 68512.1972 2620.15839 65892.0388 -446769.61  380877.57 87.3386131
 132000      .132  -355419.65 7233.67056 2636.89517 4596.77538 -362653.32 358056.547 87.8965058
 132500     .1325  -328268.34 -52656.891 2643.86419 -55300.756 -275611.45 330912.203 88.1288062
 133000      .133  -296493.94 -110622.55 2625.13894 -113247.69 -185871.39 299119.077 87.5046314
 133500     .1335  -259240.03 -166920.55 2586.25284  -169506.8  -92319.48 261826.283 86.2084279
 134000      .134  -217006.13 -220673.73 2534.93022 -223208.66 3667.59552 219541.061  84.497674
 134500     .1345  -169891.62 -271720.36 2477.02549 -274197.39 101828.744 172368.646 82.5675165
 135000      .135  -119368.78 -318697.38 2425.15042 -321122.53 199328.601 121793.934 80.8383472
 135500     .1355   -67572.47   -359862. 2381.83136 -362243.84 292289.534 69954.3016 79.3943787
 136000      .136  -16522.747 -393440.44 2322.66145  -395763.1 376917.692 18845.4083 77.4220483
 136500     .1365  34226.8083 -419818.58 2237.56749 -422056.15 454045.389 -31989.241  74.585583
 137000      .137  84701.7956 -439348.97  2136.7955 -441485.77 524050.765    -82565. 71.2265167
 137500     .1375  134332.921 -451924.56 2030.84272  -453955.4 586257.478 -132302.08 67.6947574
 138000      .138  182621.874  -457845.8  1929.0935 -459774.89  640467.67 -180692.78 64.3031165
 138500     .1385  227862.753 -456359.74 1843.34423 -458203.09 684222.497 -226019.41 61.4448076
 139000      .139  268107.672 -446593.28   1769.254 -448362.53 714700.949 -266338.42 58.9751335
 139500     .1395  302029.652 -427991.97 1683.48704 -429675.46 730021.626 -300346.16 56.1162347
 140000       .14  330606.174  -402057.2 1582.55791 -403639.76 732663.374 -329023.62 52.7519304
 140500     .1405  353878.588 -369653.69 1479.04397 -371132.73 723532.274 -352399.54 49.3014658
 141000      .141  371848.374 -331656.94 1382.21893 -333039.16 703505.314 -370466.16 46.0739644
 141500     .1415   384281.34 -288934.87 1301.47985 -290236.35 673216.214 -382979.86 43.3826616
 142000      .142  389993.799 -241501.28 1246.29701 -242747.57 631495.075  -388747.5 41.5432337
 142500     .1425   387825.48  -189298.1 1205.95202 -190504.05 577123.579 -386619.53 40.1984007
 143000      .143  377724.556 -132925.28 1159.45227 -134084.73 510649.836  -376565.1 38.6484091
 143500     .1435  361383.887 -74515.357 1106.60884 -75621.966 435899.244 -360277.28 36.8869613
 144000      .144  339397.112 -15242.049 1058.16427 -16300.213 354639.161 -338338.95 35.2721423
 144500     .1445  312530.955 43530.8392 1021.44477 42509.3944 269000.116 -311509.51 34.0481589
 145000      .145  281052.281 100868.783 1005.71948 99863.0631 180183.499 -280046.56 33.5239828
 145500     .1455  244533.644 156514.604  1017.1507 155497.453 88019.0401 -243516.49 33.9050234
 146000      .146  202676.638 210324.698 1039.93277 209284.765 -7648.0601  -201636.7 34.6644257
 146500     .1465  156603.492 261237.638 1056.68114 260180.956 -104634.15 -155546.81 35.2227046
 147000      .147   108379.46 307386.806 1069.61984 306317.186 -199007.35 -107309.84 35.6539946
 147500     .1475  59032.6486 347915.373 1087.57538 346827.797 -288882.72 -57945.073 36.2525125
 148000      .148  9698.25383 381826.596 1116.65828 380709.938 -372128.34 -8581.5955 37.2219427
 148500     .1485  -39202.771 408842.972 1164.59263  407678.38 -448045.74 40367.3639 38.8197544
 149000      .149  -87748.992  429192.57 1232.51893 427960.051 -516941.56 88981.5106 41.0839644
 149500     .1495  -135844.07 443201.101 1301.96205 441899.139 -579045.17 137146.034  43.398735
 150000       .15  -181893.73 450125.528 1360.20549 448765.323 -632019.26 183253.937  45.340183
 150500     .1505  -224171.13 449092.621 1411.31066 447681.311 -673263.75 225582.443 47.0436888
 151000      .151  -261804.49 440063.726 1461.98987 438601.736 -701868.22 263266.482 48.7329958
 151500     .1515   -294013.4 422988.021  1516.9532 421471.068 -717001.42 295530.354 50.5651066
 152000      .152  -320845.31 398602.121 1582.03647 397020.085 -719447.43 322427.342  52.734549
 152500     .1525  -342685.79 367957.157  1654.1676 366302.989 -710642.95 344339.958 55.1389199
 153000      .153  -359635.89 332040.722 1715.52254   330325.2 -691676.61  361351.41 57.1840846
 153500     .1535  -370430.42 290725.927 1758.62888 288967.298 -661156.34 372189.045 58.6209627
 154000      .154  -374275.47 244199.746 1789.43671  242410.31 -618475.21 376064.905 59.6478903
 154500     .1545   -370993.5 193168.814 1813.73875 191355.075 -564162.32 372807.241 60.4579584
 155000      .155  -360675.01 138426.114 1836.15559 136589.959 -499101.12 362511.165 61.2051864
 155500     .1555   -344187.9 81412.8123 1861.60114 79551.2111 -425600.71 346049.497 62.0533715
 156000      .156  -322563.98 23674.6371 1884.03573 21790.6014 -346238.62 324448.017  62.801191
 156500     .1565  -296331.34 -33598.514 1888.35548  -35486.87 -262732.82 298219.694 62.9451828
 157000      .157  -264915.77 -90263.462  1872.3507 -92135.813 -174652.31 266788.123 62.4116901
 157500     .1575  -228497.51 -145678.89 1843.89403 -147522.78 -82818.622 230341.403 61.4631343
 158000      .158  -187621.01 -199012.79 1808.75429 -200821.54 11391.7781 189429.764 60.2918097
 158500     .1585  -143173.75 -249297.37 1771.83658  -251069.2 106123.617 144945.586 59.0612194
 159000      .159  -96613.489 -295163.07 1736.85542 -296899.92 198549.579 98350.3445 57.8951808
 159500     .1595  -49359.399 -335326.87  1695.6241 -337022.49 285967.472 51055.0227 56.5208033
 160000       .16  -2048.0542 -369167.29 1636.90268 -370804.19 367119.235 3684.95685 54.5634227
 160500     .1605  45461.8609  -396904.3 1563.12101 -398467.42 442366.156  -43898.74 52.1040336
 161000      .161  92558.3953 -418249.74 1483.22077 -419732.96 510808.134 -91075.175 49.4406922
 161500     .1615  138477.151 -432946.38 1402.92843 -434349.31 571423.529 -137074.22  46.764281
 162000      .162  182124.282 -440559.22 1327.15262 -441886.37 622683.504 -180797.13 44.2384208
 162500     .1625  222113.283 -440472.59 1257.85327 -441730.45 662585.876 -220855.43 41.9284425
 163000      .163  257301.186 -432276.43  1185.6152 -433462.04 689577.615 -256115.57 39.5205066
 163500     .1635  287546.868 -416402.86 1103.04462  -417505.9 703949.726 -286443.82 36.7681539
 164000      .164  313133.736 -393789.07 1015.52094  -394804.6 706922.811 -312118.22  33.850698
 164500     .1645   333737.15 -364911.22 931.611099 -365842.83  698648.37 -332805.54 31.0537033
 165000      .165  348996.592  -330322.9 856.430595 -331179.33 679319.492 -348140.16 28.5476865
 165500     .1655  358260.504  -290327.5 794.063116 -291121.56    648588. -357466.44 26.4687705
 166000      .166  360817.224 -245158.42 743.740597 -245902.16  605975.64 -360073.48 24.7913532
 166500     .1665  356354.959 -195287.21  695.13728 -195982.34 551642.166 -355659.82 23.1712427
 167000      .167  345607.885 -142015.19 643.667144 -142658.86  487623.08 -344964.22 21.4555715
 167500     .1675  329370.302 -86743.559 595.737038 -87339.296 416113.861 -328774.57 19.8579013
 168000      .168  307974.728 -30444.939 558.338302 -31003.277 338419.667 -307416.39 18.6112767
 168500     .1685  281711.403 25933.6509 535.217652 25398.4332 255777.752 -281176.19 17.8405884
 169000      .169   250590.12 81782.1629 528.699328 81253.4636 168807.957 -250061.42 17.6233109
 169500     .1695  214677.238 136552.329 534.776573 136017.552 78124.9094 -214142.46 17.8258858
  % % % % % %   Suspended simulation;  plot data space exhausted;  SPY SPACE is required.   LIMBUF =  340000.
  % % % % % %   Suspended simulation;  plot data space exhausted;  SPY SPACE is required.   LIMBUF =  340000.
  +++  Time-sharing disabled.   Send  user-keyed interrupt to silence alarm.
   Current values.  INDBUF  INDBEG  LIMBUF  MFLUSH  NUMDCD  KCARD1  KCARD2
                    339994      50  340000    1003      46       1      50
Plot timespan now in memory (in sec) = 1.27476007E-01   1.69969000E-01
   ++++  Begin plot-data copy from memory to disk.   MFLUSH, INDBUF, N4, Tbeg,  Tend = 1004  339994       1  -1.00000E+00
1.00000E+19
 170000       .17  174515.885 189469.633 542.811868 188926.821 -14953.748 -173973.07 18.0937289
 170500     .1705  131530.152 239101.393 550.297352 238551.095 -107571.24 -130979.85 18.3432451
 171000      .171   86867.781 284279.154 563.450855 283715.703 -197411.37  -86304.33 18.7816952
 171500     .1715  41291.5744 324239.113 587.217107 323651.896 -282947.54 -40704.357 19.5739036
 172000      .172  -4579.3631 358393.812 623.711565 357770.101 -362973.18 5203.07471 20.7903855
 172500     .1725  -50420.343 386533.129 673.270425 385859.858 -436953.47 51093.6132 22.4423475
 173000      .173  -95832.899 408524.054 729.212825 407794.842 -504356.95 96562.1114 24.3070942
 173500     .1735  -139928.47 423993.438 781.645138 423211.793 -563921.91 140710.119 26.0548379
 174000      .174  -181245.42  432138.17 829.917037 431308.253 -613383.59 182075.341 27.6639012
 174500     .1745  -218843.72 432634.233 879.646931 431754.586 -651477.95 219723.363 29.3215644
 175000      .175  -252141.55  425500.62 934.120206 424566.499 -677642.17 253075.667 31.1373402
 175500     .1755  -280816.46  411020.67 994.333463 410026.337 -691837.13 281810.795 33.1444488
 176000      .176  -304829.27 389795.041 1059.11534 388735.926 -694624.31 305888.386 35.3038447
 176500     .1765  -324070.18 362456.702 1120.45854 361336.243 -686526.88 325190.638 37.3486182
 177000      .177  -337942.78 329316.555 1170.49624 328146.059 -667259.34 339113.279 39.0165412
 177500     .1775  -345605.75 290444.511 1210.69341 289233.818 -636050.26 346816.442 40.3564469
 178000      .178  -346835.77 246412.326 1246.40429 245165.922 -593248.09 348082.173 41.5468098
 178500     .1785  -341728.26 198012.847 1280.20215 196732.645 -539741.11 343008.466 42.6734049
 179000      .179  -330682.76 146277.986 1312.82974 144965.157 -476960.74 331995.587 43.7609912
 179500     .1795  -314299.37 92399.2771 1342.35465 91056.9224 -406698.65 315641.723 44.7451549
 180000       .18  -293054.73 37473.0817 1361.01598 36112.0658 -330527.81 294415.749 45.3671992
 180500     .1805  -266924.22 -17850.422 1364.01453 -19214.436 -249073.79  268288.23 45.4671509
 181000      .181  -235883.52 -73042.931  1355.0961 -74398.028 -162840.59 237238.617   45.16987
 181500     .1815  -200465.72 -127194.69 1339.70373 -128534.39 -73271.034 201805.424 44.6567911
 182000      .182  -161432.45 -179321.91 1320.38544 -180642.29 17889.4591 162752.835 44.0128482
 182500     .1825  -119789.87 -228306.26 1298.12396 -229604.39 108516.391 121087.996 43.2707988
 183000      .183  -76592.178 -273056.57 1270.67794 -274327.25 196464.394 77862.8563 42.3559313
 183500     .1835  -32645.575 -312733.75 1231.56982 -313965.32 280088.173 33877.1447 41.0523272
 184000      .184  11765.6309 -347030.26 1179.23524  -348209.5 358795.895 -10586.396 39.3078413
 184500     .1845  56223.6179 -375675.13 1119.19836 -376794.33 431898.749 -55104.419 37.3066121
 185000      .185  99912.7609 -398170.22 1056.83253 -399227.05 498082.982 -98855.928 35.2277511
 185500     .1855  141907.929 -414043.03 994.671128 -415037.71 555950.963 -140913.26 33.1557043
 186000      .186  181165.534 -422786.32 933.724745 -423720.05 603951.855 -180231.81 31.1241582
 186500     .1865  216760.436 -424045.42 871.335164 -424916.75 640805.852  -215889.1 29.0445055
 187000      .187   248156.69 -417820.23 802.474437  -418622.7 665976.917 -247354.22 26.7491479
 187500     .1875  275314.389 -404610.23  728.06384 -405338.29 679924.619 -274586.32 24.2687947
 188000      .188  297997.363 -384846.07 654.284971 -385500.36 682843.437 -297343.08  21.809499
 188500     .1885  315734.108 -358820.18 585.773532 -359405.95 674554.285 -315148.33 19.5257844
 189000      .189  328030.762 -326850.31 524.460987 -327374.77 654881.074  -327506.3 17.4820329
 189500     .1895  334389.995 -289248.67 470.617101 -289719.28 623638.663 -333919.38 15.6872367
 190000       .19  334540.981 -246495.79  420.70849  -246916.5 581036.773 -334120.27 14.0236163
 190500     .1905  328679.832 -199426.01 370.738069 -199796.75 528105.846 -328309.09 12.3579356
 191000      .191   317378.78 -149207.67 322.923007 -149530.59 466586.446 -317055.86 10.7641002
 191500     .1915  300959.569 -96800.988 282.834595 -97083.823 397760.557 -300676.73 9.42781984
 192000      .192  279596.748 -43022.632 253.613348 -43276.245  322619.38 -279343.13 8.45377826
 192500     .1925  253452.205 11372.2541 235.934178 11136.3199 242079.951 -253216.27 7.86447258
 193000      .193  222730.371 65674.9173 228.619556 65446.2978 157055.454 -222501.75 7.62065186
 193500     .1935  187876.476 119074.182 227.026112 118847.155 68802.2942 -187649.45 7.56753708
 194000      .194   149773.36 170487.471 227.808355 170259.663 -20714.111 -149545.55 7.59361183
 194500     .1945  109469.789 218733.194 233.530235 218499.664  -109263.4 -109236.26 7.78434115
 195000      .195  67692.1585 262966.269 248.388622 262717.881 -195274.11  -67443.77 8.27962072
 195500     .1955  25020.3663 302535.556 273.776475 302261.779 -277515.19  -24746.59  9.1258825
 196000      .196  -18034.914 336950.242 308.978675 336641.264 -354985.16 18343.8928 10.2992892
 196500     .1965  -60940.681 365815.023 351.295303 365463.728  -426755.7  61291.976 11.7098434
 197000      .197  -102975.09 388697.899  395.37529 388302.524 -491672.99 103370.462 13.1791763
 197500     .1975  -143091.61 404987.639 438.629782  404549.01 -548079.25 143530.241 14.6209927
 198000      .198  -180313.57 414174.009 483.685524 413690.323 -594487.58 180797.257 16.1228508
 198500     .1985  -214048.18 416132.167 533.422792 415598.744 -630180.35 214581.605 17.7807597
 199000      .199  -243884.87 410946.981 587.949533 410359.031 -654831.85 244472.823 19.5983178
 199500     .1995  -269542.91 398891.274 645.678881 398245.596 -668434.19 270188.591 21.5226294
 200000       0.2  -290750.31 380321.239 703.029099  379618.21 -671071.55 291453.336 23.4343033
 200500     .2005   -307096.2 355548.577 754.918412 354793.659 -662644.78 307851.118 25.1639471
 201000      .201   -317972.7 324744.535 800.063334 323944.472 -642717.24 318772.765 26.6687778
 201500     .2015  -323015.09 288270.844 841.426872 287429.418 -611285.94  323856.52 28.0475624
 202000      .202  -322242.24   246809.8 881.206756 245928.593 -569052.04  323123.45 29.3735585
 202500     .2025  -315857.25  201190.48 919.092643 200271.388 -517047.74 316776.347 30.6364214
 203000      .203  -304191.85 152355.731  953.44082  151402.29 -456547.58 305145.292 31.7813607
 203500     .2035  -287568.86 101239.012 980.734465 100258.277 -388807.87 288549.597 32.6911488
 204000      .204  -266164.73 48638.7433 997.203034 47641.5402 -314803.47 267161.935 33.2401011
 204500     .2045  -240041.13 -4806.9957 1003.38254 -5810.3782 -235234.13 241044.511 33.4460847
 205000      .205  -209560.24 -58289.978 1002.88701 -59292.865 -151270.26 210563.124 33.4295671
 205500     .2055  -175382.04 -110825.35 997.844025  -111823.2  -64556.69 176379.887 33.2614675
 206000      .206  -138285.25 -161397.71 988.204717 -162385.91 23112.4548 139273.455 32.9401572
 206500     .2065  -99095.666 -209009.56 972.800595 -209982.36 109913.895 100068.466 32.4266865
 207000      .207  -58549.727 -252798.41 948.819901 -253747.23 194248.679 59498.5467   31.62733
 207500     .2075  -17172.834 -292148.87 914.308417 -293063.18 274976.038 18087.1422 30.4769472
 208000      .208  24595.9376 -326630.55 871.586404 -327502.14 351226.489 -23724.351 29.0528801
 208500     .2085  66060.6379 -355704.67 824.782067 -356529.45 421765.308 -65235.856 27.4927356
 209000      .209  106366.377 -378794.23 776.045389 -379570.27 485160.604 -105590.33 25.8681796
 209500     .2095  144645.951 -395388.37 725.649338 -396114.02 540034.323  -143920.3 24.1883113
 210000       .21  180103.554 -405098.22  672.79879 -405771.02 585201.773 -179430.75 22.4266263
 210500     .2105  212133.302  -407749.9 615.387444 -408365.29 619883.207 -211517.91 20.5129148
 211000      .211  240406.682 -403465.87 553.013186 -404018.88 643872.549 -239853.67 18.4337729
 211500     .2115  264664.787 -392516.71 489.069033 -393005.78 657181.498 -264175.72 16.3023011
 212000      .212   284468.13  -375088.4 427.524292 -375515.92  659556.53 -284040.61 14.2508097
  % % % % % %   Suspended simulation;  plot data space exhausted;  SPY SPACE is required.   LIMBUF =  340000.
  % % % % % %   Suspended simulation;  plot data space exhausted;  SPY SPACE is required.   LIMBUF =  340000.
  +++  Time-sharing disabled.   Send  user-keyed interrupt to silence alarm.
   Current values.  INDBUF  INDBEG  LIMBUF  MFLUSH  NUMDCD  KCARD1  KCARD2
                    339994      50  340000    1004      46       1      50
Plot timespan now in memory (in sec) = 1.69967994E-01   2.12461000E-01
   ++++  Begin plot-data copy from memory to disk.   MFLUSH, INDBUF, N4, Tbeg,  Tend = 1005  339994       1  -1.00000E+00
1.00000E+19
 212500     .2125  299340.149 -351385.48 370.084799 -351755.56 650725.625 -298970.06   12.33616
 213000      .213  308876.256 -321694.88 316.835135 -322011.71 630571.131 -308559.42 10.5611712
 213500     .2135  312827.037 -286439.92 266.764973 -286706.68 599266.956 -312560.27 8.89216577
 214000      .214  311188.631 -246245.51 218.005316 -246463.52 557434.142 -310970.63 7.26684387
 214500     .2145  304235.948  -201975.7 170.953501 -202146.65 506211.647 -304064.99 5.69845003
 215000      .215  292257.844 -154523.62 129.046522 -154652.67 446781.463  -292128.8 4.30155075
 215500     .2155  275402.235  -104653.5 95.2637051 -104748.76 380055.736 -275306.97 3.17545684
 216000      .216  253827.528  -53109.63 70.2603501  -53179.89 306937.158 -253757.27 2.34201167
 216500     .2165  227778.742 -654.45163 53.3249004 -707.77653 228433.194 -227725.42 1.77749668
 217000      .217  197659.866 51881.5872 42.6737324 51838.9134 145778.279 -197617.19 1.42245775
 217500     .2175  164095.808  103553.71  36.247555 103517.462 60542.0979 -164059.56 1.20825183
 218000      .218  127901.679 153311.098 34.5753033 153276.523 -25409.419  -127867.1 1.15251011
 218500     .2185   89799.991 200228.802 40.3797805 200188.422 -110428.81 -89759.611 1.34599268
 219000      .219  50354.3806 243584.387  55.205546 243529.181 -193230.01 -50299.175 1.84018487
 219500     .2195  10109.6637 282753.203 78.4432804 282674.759 -272643.54  -10031.22 2.61477601
 220000       .22  -30351.672 317175.498 108.404304 317067.094 -347527.17 30460.0764 3.61347682
 220500     .2205  -70349.814  346306.79 142.493071 346164.297  -416656.6 70492.3072 4.74976904
 221000      .221  -109066.95 369577.451 178.512318 369398.939  -478644.4 109245.462 5.95041061
 221500     .2215  -145636.39  386440.16 216.974772 386223.185 -532076.54  145853.36 7.23249239
 222000      .222  -179400.55 396582.074 259.779848 396322.294 -575982.62 179660.325 8.65932827
 222500     .2225  -209899.39 399923.969 307.261035 399616.708 -609823.36 210206.654 10.2420345
 223000      .223  -236745.63  396520.53 357.947662 396162.582 -633266.16 237103.576 11.9315887
 223500     .2235   -259572.5 386517.761 409.596615 386108.165 -646090.26 259982.097 13.6532205
 224000      .224  -277982.08 370099.987 459.370599 369640.617 -648082.07 278441.449 15.3123533
 224500     .2245  -291518.44 347449.422 505.492011  346943.93 -638967.87 292023.937 16.8497337
 225000      .225  -299798.46 318823.834 548.814719 318275.019 -618622.29 300347.274  18.293824
 225500     .2255  -302711.06 284720.474 590.856613 284129.617 -587431.53 303301.915 19.6952204
 226000      .226  -300343.26  245814.53 631.440818 245183.089 -546157.79 300974.704 21.0480273
 226500     .2265  -292868.05 202865.792 669.007921 202196.784 -495733.85 293537.062  22.300264
 227000      .227  -280487.56 156664.705 701.495875  155963.21 -437152.26 281189.054 23.3831958
 227500     .2275  -263384.87 107978.803 726.634621 107252.169 -371363.67 264111.503  24.221154
 228000      .228  -241710.45 57518.7889  743.73028 56775.0586 -299229.24 242454.184 24.7910093
 228500     .2285  -215735.12 6040.07641 754.420715  5285.6557 -221775.19 216489.536 25.1473572
 229000      .229   -185975.1 -45550.171 760.360803 -46310.532 -140424.93 186735.458 25.3453601
 229500     .2295  -153077.49 -96288.057 761.525745 -97049.583 -56789.436 153839.019 25.3841915
 230000       .23  -117720.28 -145233.72 756.884478 -145990.61 27513.4476  118477.16 25.2294826
 230500     .2305  -80552.899 -191526.12 745.082559  -192271.2 110973.221 81297.9817 24.8360853
 231000      .231  -42153.342 -234427.87 724.922829 -235152.79 192274.526 42878.2648 24.1640943
 231500     .2315  -3035.5056 -273337.59 697.058169 -274034.64  270302.08 3732.56382 23.2352723
 232000      .232  36191.4052 -307669.05 663.960362 -308333.01 343860.455 -35527.445 22.1320121
 232500     .2325  74767.7402 -336793.77 627.538663 -337421.31 411561.509 -74140.202 20.9179554
 233000      .233  111912.545 -360140.67 588.094883 -360728.76 472053.213 -111324.45 19.6031628
 233500     .2335  146907.135  -377256.6 545.189761 -377801.79 524163.731 -146361.94  18.172992
 234000      .234   179146.84 -387848.01 498.147106 -388346.16  566994.85 -178648.69 16.6049035
 234500     .2345  208171.177 -391807.44 446.738747 -392254.17 599978.612 -207724.44 14.8912916
 235000      .235  233624.747 -389191.06 392.602634 -389583.67 622815.811 -233232.14 13.0867545
 235500     .2355  255102.815 -380086.47 338.542327 -380425.01 635189.288 -254764.27 11.2847442
 236000      .236  272149.506 -364592.16 286.317961 -364878.48 636741.671 -271863.19 9.54393204
 236500     .2365   284377.98 -342902.23 236.190837 -343138.42 627280.214 -284141.79 7.87302789
 237000      .237  291532.258 -315344.08 187.848379 -315531.93 606876.338 -291344.41 6.26161264
 237500     .2375  293520.971 -282400.01 140.792827 -282540.81 575920.984 -293380.18 4.69309423
 238000      .238  290426.906 -244712.27  95.197781 -244807.47 535139.174 -290331.71 3.17325937
 238500     .2385  282431.382 -203024.21 52.9280821 -203077.14 485455.597 -282378.45  1.7642694
 239000      .239  269675.327 -158051.62 16.3455965 -158067.97 427726.948 -269658.98 .544853218
 239500     .2395  252292.568 -110490.42 -13.550821 -110476.87 362782.986 -252306.12 -.45169404
 240000       .24  230507.615 -61081.587  -37.08733 -61044.499 291589.202  -230544.7 -1.2362443
 240500     .2405   204674.97 -10632.316 -55.028521 -10577.287 215307.286   -204730.  -1.834284
 241000      .241  175292.058 39978.1253 -68.226225 40046.3515 135313.933 -175360.28 -2.2742075
 241500     .2415  142986.055 89809.1044 -76.666502 89885.7709 53176.9507 -143062.72 -2.5555501
 242000      .242  108408.811 137941.875 -78.909784 138020.785 -29533.063 -108487.72 -2.6303261
 242500     .2425  72125.8459 183584.922  -73.58003 183658.502 -111459.08 -72199.426 -2.4526677
 243000      .243  34672.5029 226040.632 -60.773636 226101.406 -191368.13 -34733.277 -2.0257879
 243500     .2435  -3371.2302 264652.858 -41.646498 264694.504 -268024.09 3329.58373 -1.3882166
 244000      .244  -41357.786 298790.633  -17.62771 298808.261 -340148.42 41340.1586 -.58759033
 244500     .2445  -78573.514 327846.518 9.95660877 327836.561 -406420.03  78583.471 .331886959
 245000      .245  -114269.45 351253.249 40.8300854 351212.419  -465522.7 114310.283 1.36100285
 245500     .2455  -147778.24 368572.643 75.8582368 368496.785 -516350.89 147854.103 2.52860789
 246000      .246  -178584.69 379560.759 115.454385 379445.304 -558145.45 178700.145  3.8484795
 246500     .2465  -206252.44 384110.447 158.650905 383951.796 -590362.89 206411.096 5.28836351
 247000      .247  -230364.11 382201.483 203.756961 381997.726 -612565.59 230567.866 6.79189869
 247500     .2475  -250505.02 373879.808 249.013563 373630.795 -624384.83 250754.031  8.3004521
 248000      .248  -266268.78 359250.758 293.023645 358957.734 -625519.54 266561.804 9.76745485
 248500     .2485  -277297.41   338495.6 335.582794 338160.017 -615793.01 277632.996 11.1860931
 249000      .249   -283389.8 311950.648 377.341213 311573.307 -595340.45 283767.144 12.5780404
 249500     .2495  -284524.86 280126.957 418.264892 279708.692 -564651.82 284943.124 13.9421631
 250000       .25  -280775.25 243635.475  457.15725 243178.318 -524410.73 281232.412  15.238575
 250500     .2505  -272254.23 203136.415 492.434502 202643.981 -475390.65 272746.667 16.4144834
 251000      .251  -259099.44  159313.58 522.645782 158790.934 -418413.02 259622.086 17.4215261
 251500     .2515  -241476.04 112862.396 546.951068 112315.445 -354338.44 242022.996 18.2317023
 252000      .252  -219620.91 64508.7183 565.741444 63942.9768 -284129.63 220186.656 18.8580481
 252500     .2525  -193928.71 15072.5877 579.946502 14492.6412  -209001.3 194508.659 19.3315501
 253000      .253  -164931.27  -34548.69 589.672673 -35138.363 -130382.58 165520.939 19.6557558
 253500     .2535  -133206.21 -83459.059 594.108682 -84053.168 -49747.153 133800.322 19.8036227
 254000      .254   -99328.92 -130809.24 592.311452 -131401.55  31480.319 99921.2318 19.7437151
 254500     .2545   -63856.97 -175819.04 583.610502 -176402.65 111962.071 64440.5806 19.4536834
  % % % % % %   Suspended simulation;  plot data space exhausted;  SPY SPACE is required.   LIMBUF =  340000.
  % % % % % %   Suspended simulation;  plot data space exhausted;  SPY SPACE is required.   LIMBUF =  340000.
  +++  Time-sharing disabled.   Send  user-keyed interrupt to silence alarm.
   Current values.  INDBUF  INDBEG  LIMBUF  MFLUSH  NUMDCD  KCARD1  KCARD2
                    339994      50  340000    1005      46       1      50
Plot timespan now in memory (in sec) = 2.12459996E-01   2.54953000E-01
   ++++  Begin plot-data copy from memory to disk.   MFLUSH, INDBUF, N4, Tbeg,  Tend = 1006  339994       1  -1.00000E+00
1.00000E+19
 255000      .255   -27332.85 -217785.62 568.103603 -218353.72 190452.769 27900.9534 18.9367868
 255500     .2555  9667.34592 -256054.07 547.006094 -256601.08  265721.42 -9120.3398 18.2335365
 256000      .256  46473.5816 -289966.07 521.709536 -290487.78 336439.655 -45951.872 17.3903179
 256500     .2565  82372.3291 -318895.94 492.681146 -319388.62 401268.267 -81879.648 16.4227049
 257000      .257  116690.963 -342317.12 459.670981 -342776.79 459008.085 -116231.29  15.322366
 257500     .2575  148835.334 -359832.89 422.434465 -360255.32 508668.224  -148412.9 14.0811488
 258000      .258  178298.057 -371185.03 381.055619 -371566.09 549483.088   -177917.  12.701854
 258500     .2585  204648.017 -376247.81 336.420431 -376584.23 580895.824  -204311.6 11.2140144
 259000      .259  227473.571 -374981.49 290.277568 -375271.77 602455.065 -227183.29 9.67591893
 259500     .2595  246343.741 -367389.06 244.171648 -367633.23 613732.799 -246099.57 8.13905492
 260000       .26  260870.394  -353555.5 198.652466 -353754.15 614425.894 -260671.74 6.62174885
 260500     .2605  270774.201 -333692.79 153.700414 -333846.49 604466.987  -270620.5 5.12334713
 261000      .261  275904.844 -308150.52 109.348213 -308259.87 584055.364  -275795.5 3.64494043
 261500     .2615  276235.559 -277407.19 65.9610053 -277473.16 553642.754  -276169.6 2.19870018
 262000      .262  271837.412 -242045.97 24.6475847 -242070.62 513883.385 -271812.76 .821586156
 262500     .2625  262813.771 -202693.73  -12.94562 -202680.79 465507.503 -262826.72 -.43152066
 263000      .263  249277.976  -159986.9 -45.703746 -159941.19 409264.873 -249323.68 -1.5234582
 263500     .2635  231413.454 -114607.36 -73.509695 -114533.85  346020.81 -231486.96 -2.4503232
 264000      .264  209516.432 -67307.461 -96.679776 -67210.781 276823.893 -209613.11 -3.2226592
 264500     .2645  183997.171 -18905.003 -115.45111 -18789.552 202902.173 -184112.62 -3.8483704
 265000      .265  155360.251 29737.1501 -129.71658 29866.8667 125623.101 -155489.97 -4.3238859
 265500     .2655  124163.361 77747.3518 -138.71146 77886.0632  46416.009 -124302.07 -4.6237153
 266000      .266  90949.5142 124308.296 -141.43696 124449.733 -33358.782 -91090.951 -4.7145655
 266500     .2665  56240.5297 168674.826 -137.62847 168812.454  -112434.3 -56378.158 -4.5876158
 267000      .267  20590.3554 210138.508 -127.91548 210266.423 -189548.15 -20718.271 -4.2638492
 267500     .2675  -15391.215 248012.345 -113.19246 248125.537 -263403.56 15278.0221 -3.7730822
 268000      .268   -51050.21 281640.318 -94.207838 281734.526 -332690.53 50956.0018 -3.1402613
 268500     .2685  -85715.806 310417.841 -71.305254 310489.147 -396133.65 85644.5011 -2.3768418
 269000      .269  -118749.26 333828.539 -44.238598 333872.777  -452577.8 118705.019 -1.4746199
 269500     .2695  -149601.73 351493.979 -12.750777  351506.73  -501095.7 149588.974  -.4250259
 270000       .27  -177801.75 363167.551 22.6297772 363144.921  -540969.3 177824.383 .754325908
 270500     .2705  -202906.01 368693.693 60.6879527 368633.006  -571599.7 202966.694 2.02293176
 271000      .271  -224484.95 367991.612 100.148453 367891.464 -592476.56 224585.096 3.33828177
 271500     .2715  -242137.32 361059.262  139.99761 360919.264 -603196.58 242277.314 4.66658699
 272000      .272  -255515.84 347985.147 179.723697 347805.423 -603500.99 255695.566 5.99078989
 272500     .2725  -264373.11 328976.771  219.35149 328757.419 -593349.88 264592.465 7.31171634
 273000      .273  -268597.94 304387.411 258.772991 304128.638 -572985.35 268856.715 8.62576637
 273500     .2735  -268181.71  274685.54 297.157997 274388.382 -542867.25  268478.87 9.90526658
 274000      .274  -263169.43 240407.958 333.244928 240074.713 -503577.39 263502.676 11.1081643
 274500     .2745  -253646.87  202139.21 365.909572   201773.3 -455786.08 254012.781 12.1969857
 275000      .275  -239750.59 160508.066 394.409147 160113.657 -400258.66 240144.999 13.1469716
 275500     .2755  -221686.84 116190.984 418.579812 115772.404 -337877.82 222105.419 13.9526604
 276000      .276  -199767.52 69931.8938 438.712777  69493.181 -269699.41 200206.234 14.6237592
 276500     .2765  -174420.91 22547.5028 454.857421 22092.6454 -196968.42 174875.771  15.161914
 277000      .277   -146141.1 -25118.313 466.445605 -25584.758 -121022.78 146607.543 15.5481868
 277500     .2775  -115440.39 -72240.225 472.702442 -72712.928 -43200.168 115913.095 15.7567481
 278000      .278  -82836.896 -118030.42 473.121518 -118503.54 35193.5277 83310.0173 15.7707173
 278500     .2785  -48860.187 -161742.77 467.642632 -162210.41 112882.585 49327.8294 15.5880877
 279000      .279  -14065.684 -202669.04 456.781756 -203125.82 188603.356 14522.4653 15.2260585
 279500     .2795  20938.8783 -240120.92 441.360821 -240562.28 261059.794 -20497.517 14.7120274
 280000       .28  55503.1211 -273436.21 421.842925 -273858.05 328939.331 -55081.278 14.0614308
 280500     .2805  88990.5954 -302024.54 398.159092  -302422.7 391015.133 -88592.436 13.2719697
 281000      .281  120818.292 -325400.85 370.175067 -325771.02 446219.142 -120448.12 12.3391689
 281500     .2815   150463.34 -343193.19 338.060684 -343531.25 493656.525 -150125.28 11.2686895
 282000      .282  177455.346 -355137.88 302.414378 -355440.29 532593.225 -177152.93 10.0804793
 282500     .2825  201359.364 -361065.67 264.310633 -361329.98 562425.031 -201095.05 8.81035443
 283000      .283  221753.643 -360878.46 224.916634 -361103.37 582632.101 -221528.73 7.49722114
 283500     .2835  238249.232  -354556.7 184.913728 -354741.62 592805.934 -238064.32 6.16379092
 284000      .284  250539.846 -342193.32 144.505505 -342337.82 592733.163 -250395.34 4.81685018
 284500     .2845  258425.713 -324008.15  103.89223 -324112.04 582433.863 -258321.82 3.46307433
 285000      .285  261808.277 -300339.53 63.5425326 -300403.07 562147.806 -261744.73 2.11808442
 285500     .2855   260674.09 -271626.31 24.2784556 -271650.59 532300.398 -260649.81 .809281852
 286000      .286  255069.322  -238380.9 -12.761711 -238368.14 493450.225 -255082.08 -.42539035
 286500     .2865  245077.764 -201160.63 -46.572029 -201114.06 446238.395 -245124.34  -1.552401
 287000      .287  230841.741 -160572.94 -76.728288 -160496.21 391414.682 -230918.47 -2.5576096
 287500     .2875  212597.631 -117295.32 -103.22685  -117192.1 329892.955 -212700.86  -3.440895
 288000      .288  190681.533 -72073.265 -126.03577  -71947.23 262754.798 -190807.57 -4.2011924
 288500     .2885  165511.026 -25699.853 -144.90151 -25554.952 191210.879 -165655.93 -4.8300503
 289000      .289  137559.734 21010.4254 -159.29336 21169.7188 116549.308 -137719.03 -5.3097788
 289500     .2895  107324.395 67255.0262 -168.51799 67423.5442 40069.3686 -107492.91 -5.6172663
 290000       .29  75304.9228 112269.342 -172.18225 112441.524 -36964.419 -75477.105 -5.7394084
 290500     .2905  42024.6522 155318.806 -170.48888 155489.295 -113294.15 -42195.141 -5.6829628
 291000      .291  8052.37052 195686.023 -163.95857 195849.981 -187633.65 -8216.3291 -5.4652857
 291500     .2915  -26005.089 232679.105 -153.02958 232832.134 -258684.19 25852.0597 -5.1009859
 292000      .292  -59527.914 265653.034 -137.92375 265790.958 -325180.95 59389.9898 -4.5974585
 292500     .2925  -91912.112 294033.568 -118.61873 294152.187 -385945.68 91793.4937 -3.9539577
 293000      .293  -122602.03 317345.199 -95.028899 317440.228 -439947.23 122507.005   -3.16763
 293500     .2935  -151101.36 335223.567 -67.439547 335291.007 -486324.92 151033.918 -2.2479849
 294000      .294  -176949.82 347397.559 -36.646719 347434.205 -524347.38 176913.176 -1.2215573
 294500     .2945  -199707.74  353674.23 -3.6066609 353677.836 -553381.97 199704.133 -.12022203
 295000      .295  -218967.01 353942.859 30.8988096 353911.961 -572909.87 218997.912 1.02996032
 295500     .2955  -234373.67  348187.47  66.348674 348121.121 -582561.14 234440.021 2.21162247
 296000      .296  -245651.57 336500.083 102.475912 336397.607 -582151.65 245754.044 3.41586372
 296500     .2965  -252625.04 319094.812 139.031503  318955.78 -571719.85 252764.068 4.63438342
 297000      .297  -255214.36 296301.123 175.408437 296125.715 -551515.48 255389.767  5.8469479
  % % % % % %   Suspended simulation;  plot data space exhausted;  SPY SPACE is required.   LIMBUF =  340000.
  % % % % % %   Suspended simulation;  plot data space exhausted;  SPY SPACE is required.   LIMBUF =  340000.
  +++  Time-sharing disabled.   Send  user-keyed interrupt to silence alarm.
   Current values.  INDBUF  INDBEG  LIMBUF  MFLUSH  NUMDCD  KCARD1  KCARD2
                    339994      50  340000    1006      46       1      50
Plot timespan now in memory (in sec) = 2.54952013E-01   2.97445000E-01
   ++++  Begin plot-data copy from memory to disk.   MFLUSH, INDBUF, N4, Tbeg,  Tend = 1007  339994       1  -1.00000E+00
1.00000E+19
 297500     .2975  -253405.58   268533.7 210.639601 268323.061 -521939.28 253616.215 7.02132002
 298000      .298  -247234.95 236271.599  243.77375 236027.826 -483506.55  247478.72 8.12579167
 298500     .2985   -236796.2 200054.579 274.132352 199780.447 -436850.78 237070.331 9.13774505
 299000      .299  -222254.44 160484.995 301.352445 160183.642 -382739.44 222555.797 10.0450815
 299500     .2995  -203860.03 118230.411 325.334892 117905.076 -322090.44 204185.361 10.8444964
 300000       0.3  -181956.79 74024.3256 345.966875 73678.3588 -255981.11 182302.753 11.5322292
 300500     .3005  -156961.46 28644.4941 362.821183  28281.673 -185605.96 157324.286 12.0940394
 301000      .301  -129327.84 -17123.011 375.262011 -17498.273 -112204.83 129703.104 12.5087337
 301500     .3015  -99530.314 -62505.326 382.804478  -62888.13 -37024.988 99913.1185 12.7601493
 302000      .302  -68066.726  -106748.7 385.289746 -107133.99 38681.9727 68452.0154 12.8429915
 302500     .3025  -35464.848 -149120.23 382.886035 -149503.11 113655.378 35847.7343 12.7628678
 303000      .303  -2288.6104 -188907.95 375.986043 -189283.93 186619.336 2664.59642 12.5328681
 303500     .3035   30864.934 -225425.21 364.906931 -225790.12 256290.148 -30500.027 12.1635644
 304000      .304  63395.3375 -258035.94 349.674781 -258385.62 321431.281 -63045.663  11.655826
 304500     .3045  94733.0692 -286184.81 330.206572 -286515.02 380917.879 -94402.863 11.0068857
 305000      .305  124351.593 -309409.85 306.624655 -309716.48 433761.444 -124044.97 10.2208218
 305500     .3055  151763.494  -327341.3 279.356915 -327620.66 479104.793 -151484.14 9.31189715
 306000      .306  176514.633 -339697.13 249.100556 -339946.23 516211.762 -176265.53 8.30335188
 306500     .3065  198178.608 -346276.55 216.673025 -346493.23 544455.162 -197961.93 7.22243418
 307000      .307  216363.378 -346960.45 182.715114 -347143.16 563323.825 -216180.66 6.09050381
 307500     .3075  230739.824 -341729.49 147.566896 -341877.06 572469.314 -230592.26 4.91889653
 308000      .308  241065.705 -330679.76 111.498765 -330791.26 571745.465 -240954.21  3.7166255
 308500     .3085  247186.891 -314020.17 74.9683032 -314095.14 561207.064 -247111.92 2.49894344
 309000      .309  249026.257 -292059.07 38.6614826 -292097.73 541085.322  -248987.6 1.28871609
 309500     .3095  246571.869 -265188.89 3.42826474 -265192.32 511760.762 -246568.44 .114275491
 310000       .31  239866.521 -233870.04 -29.898614 -233840.14 473736.557 -239896.42 -.99662047
 310500     .3105  229011.815 -198624.69 -60.768865 -198563.92 427636.503 -229072.58 -2.0256288
 311000      .311  214188.437 -160044.96 -88.945074 -159956.01 374233.392 -214277.38 -2.9648358
 311500     .3115  195665.467 -118793.73 -114.24442 -118679.49   314459.2 -195779.71 -3.8081474
 312000      .312  173788.917 -75589.439  -136.3397   -75453.1 249378.356 -173925.26 -4.5446565
 312500     .3125  148962.177 -31183.918  -154.7578 -31029.161 180146.096 -149116.94 -5.1585932
 313000      .313  121627.369 13659.4487  -168.9622 13828.4109 107967.921 -121796.33 -5.6320732
 313500     .3135  92250.4244 58185.7852 -178.54737 58364.3326 34064.6392 -92428.972 -5.9515788
 314000      .314  61322.5941 101655.647 -183.44827 101839.095 -40333.053 -61506.042 -6.1149424
 314500     .3145  29372.4966 143341.225  -183.8828 143525.108 -113968.73 -29556.379 -6.1294267
 315000      .315   -3036.042  182531.92 -180.08603 182712.006 -185567.96 2855.95593 -6.0028676
 315500     .3155  -35323.084 218552.519 -172.16438 218724.683  -253875.6 35150.9196 -5.7388128
 316000      .316  -66915.223 250784.004 -160.11881 250944.123 -317699.23 66755.1038 -5.3372936
 316500     .3165  -97265.393 278682.028 -143.93874 278825.967 -375947.42 97121.4546  -4.797958
 317000      .317  -125865.77 301790.329  -123.7933 301914.122  -427656.1 125741.977 -4.1264433
 317500     .3175  -152243.48 319739.339  -100.1721 319839.511 -471982.82 152143.304 -3.3390699
 318000      .318  -175951.01 332237.914 -73.755881  332311.67 -508188.93 175877.257 -2.4585294
 318500     .3185  -196571.82 339075.245 -45.163913 339120.409 -535647.06 196526.653 -1.5054638
 319000      .319  -213738.19 340131.848 -14.857601 340146.705 -553870.04 213723.332 -.49525338
 319500     .3195  -227148.88  335390.06 16.8184875 335373.241 -562538.94 227165.701  .56061625
 320000       .32  -236582.19 324941.022 49.5318923  324891.49 -561523.22 236631.727 1.65106308
 320500     .3205  -241899.37 308984.275 82.7846854  308901.49 -550883.64 241982.153 2.75948951
 321000      .321  -243031.91 287813.215 115.841319 287697.374 -530845.13 243147.753 3.86137729
 321500     .3215  -239968.73  261798.25 147.904695 261650.345 -501766.98 240116.635  4.9301565
 322000      .322  -232758.16 231380.752 178.335271 231202.417 -464138.92 232936.499 5.94450902
 322500     .3225  -221518.35 197073.628  206.69944 196866.929 -418591.98  221725.05 6.88998134
 323000      .323  -206444.86 159460.127 232.710604 159227.416 -365904.99 206677.575 7.75702013
 323500     .3235  -187813.09 119189.233 256.111421 118933.122 -307002.32   188069.2 8.53704737
 324000      .324  -165969.51 76962.9715 276.515401 76686.4561 -242932.48 166246.022 9.21718003
 324500     .3245  -141310.19 33512.6028 293.394314 33219.2085 -174822.79 141603.581 9.77981046
 325000      .325  -114264.05  -10422.45 306.273333 -10728.724  -103841.6 114570.325 10.2091111
 325500     .3255  -85290.516 -54104.209  314.90096  -54419.11 -31186.307 85605.4165 10.4966987
 326000      .326   -54882.53 -96800.472 319.251885 -97119.724 41917.9421 55201.7814 10.6417295
 326500     .3265   -23566.19 -137790.69 319.448749 -138110.14 114224.497 23885.6392 10.6482916
 327000      .327  8104.79707 -176374.38 315.631562 -176690.01 184479.175 -7789.1655 10.5210521
 327500     .3275  39565.5057 -211887.13 307.823445 -212194.96 251452.641 -39257.682 10.2607815
 328000      .328  70264.1328 -243723.35 295.966082 -244019.32 313987.482 -69968.167 9.86553607
 328500     .3285  99677.1967 -271351.85 280.111185 -271631.96 371029.049 -99397.085  9.3370395
 329000      .329  127311.227 -294319.96 260.535217 -294580.49 421631.184 -127050.69 8.68450722
 329500     .3295  152701.022 -312253.26  237.70394 -312490.97 464954.287 -152463.32 7.92346466
 330000       .33   175411.11 -324856.47 212.177585 -325068.65  500267.58 -175198.93 7.07258616
[...]
                                   1  5.5801796E-02    2  5.4258744E-02    3  5.4176209E-02    4  1.0357663E-02    5  6.9853327E-01
                                   6  6.9869586E-01    7  6.9958808E-01

                   -681592.87 -708356.19 -726185.87 .1140366E7 -.113133E7 -.121697E7 2508.93717
Times of maxima :      .00764    .714046     .00336    .004787    .006683    .002932    .713866
             Random switching times for simulation number  297  :
                                   1  5.6055230E-02    2  5.4163897E-02    3  5.4929744E-02    4  9.5205641E-03    5  7.0046628E-01
                                   6  6.9931070E-01    7  6.9985771E-01

                   -681592.87 -671251.68 -726185.87 .1140366E7 -.113133E7 -.121697E7 2575.17759
Times of maxima :      .00764    .713929     .00336    .004787    .006683    .002932    .014571
             Random switching times for simulation number  298  :
                                   1  5.4402657E-02    2  5.4726493E-02    3  5.5809066E-02    4  1.1302849E-02    5  6.9999931E-01
                                   6  6.9999918E-01    7  7.0135056E-01

                   -681592.87 -682862.34 -726185.87 .1140366E7 -.113133E7 -.121697E7 2458.86558
Times of maxima :      .00764    .714021     .00336    .004787    .006683    .002932    .713676
             Random switching times for simulation number  299  :
                                   1  5.4359107E-02    2  5.5309833E-02    3  5.5354775E-02    4  9.7516764E-03    5  7.0067447E-01
                                   6  7.0174165E-01    7  7.0054964E-01

                   -681592.87 -673866.25 -726185.87 .1140366E7 -.113133E7 -.121697E7 2484.02467
Times of maxima :      .00764    .713939     .00336    .004787    .006683    .002932    .713656
             Random switching times for simulation number  300  :
                                   1  5.6212631E-02    2  5.5400460E-02    3  5.4330646E-02    4  9.8967378E-03    5  7.0009595E-01
                                   6  7.0031249E-01    7  6.9985806E-01

                   -681592.87 -679639.57 -726185.87 .1140366E7 -.113133E7 -.121697E7 2462.48199
Times of maxima :      .00764    .714108     .00336    .004787    .006683    .002932    .713631

 MAIN20 dumps OVER12 dice seed  SEEDSV =   3.0444871000000000E+09

Statistical output of  node  voltage   0.4287E+06 |              X0003AX0003BX0003C

1 ) -------------------------------------------------------------------------------------------------------------------------------
Statistical distribution of peak voltage at node  "X0003A".   The base voltage for per unit printout is  V-base = 4.28660705E+05
  Interval             voltage         voltage  in     Frequency    Cumulative               Per cent
    number         in per unit      physical units     (density)     frequency     .GE. current value
        31           1.5500000      6.64424093E+05             0             0          100.000000
        32           1.6000000      6.85857128E+05           264           264           12.000000
        33           1.6500000      7.07290163E+05             5           269           10.333333
        34           1.7000000      7.28723199E+05             6           275            8.333333
        35           1.7500000      7.50156234E+05             4           279            7.000000
        36           1.8000000      7.71589269E+05             3           282            6.000000
        37           1.8500000      7.93022304E+05            10           292            2.666667
        38           1.9000000      8.14455340E+05             8           300             .000000
Summary of preceding table follows:       Grouped data     Ungrouped data
                                 Mean = 1.59816667E+00     1.61127679E+00
                             Variance = 4.90465440E-03     4.33653606E-03
                   Standard deviation = 7.00332378E-02     6.58523808E-02

2 ) -------------------------------------------------------------------------------------------------------------------------------
Statistical distribution of peak voltage at node  "X0003B".   The base voltage for per unit printout is  V-base = 4.28660705E+05
  Interval             voltage         voltage  in     Frequency    Cumulative               Per cent
    number         in per unit      physical units     (density)     frequency     .GE. current value
        30           1.5000000      6.42991058E+05             0             0          100.000000
        31           1.5500000      6.64424093E+05            41            41           86.333333
        32           1.6000000      6.85857128E+05           148           189           37.000000
        33           1.6500000      7.07290163E+05            80           269           10.333333
        34           1.7000000      7.28723199E+05            26           295            1.666667
        35           1.7500000      7.50156234E+05             0           295            1.666667
        36           1.8000000      7.71589269E+05             0           295            1.666667
        37           1.8500000      7.93022304E+05             0           295            1.666667
        38           1.9000000      8.14455340E+05             0           295            1.666667
        39           1.9500000      8.35888375E+05             0           295            1.666667
        40           2.0000000      8.57321410E+05             0           295            1.666667
        41           2.0500000      8.78754445E+05             0           295            1.666667
        42           2.1000000      9.00187481E+05             0           295            1.666667
        43           2.1500000      9.21620516E+05             1           296            1.333333
        44           2.2000000      9.43053551E+05             3           299             .333333
        45           2.2500000      9.64486586E+05             1           300             .000000
Summary of preceding table follows:       Grouped data     Ungrouped data
                                 Mean = 1.60016667E+00     1.59998090E+00
                             Variance = 7.28258082E-03     6.98766099E-03
                   Standard deviation = 8.53380386E-02     8.35922304E-02

3 ) -------------------------------------------------------------------------------------------------------------------------------
  SUMMARY   SUMMARY   SUMMARY   SUMMARY   SUMMARY   SUMMARY   SUMMARY   SUMMARY   SUMMARY   SUMMARY   SUMMARY   SUMMARY   SUMMARY
3 ) -------------------------------------------------------------------------------------------------------------------------------
The following is a distribution of peak overvoltages among all output nodes of the last data card that have the same base voltage.
This distribution is for the maximum of the peaks at all output nodes with  V-base = 4.28660705E+05
  Interval             voltage         voltage  in     Frequency    Cumulative               Per cent
    number         in per unit      physical units     (density)     frequency     .GE. current value
        33           1.6500000      7.07290163E+05             0             0          100.000000
        34           1.7000000      7.28723199E+05           270           270           10.000000
        35           1.7500000      7.50156234E+05             4           274            8.666667
        36           1.8000000      7.71589269E+05             3           277            7.666667
        37           1.8500000      7.93022304E+05            10           287            4.333333
        38           1.9000000      8.14455340E+05             8           295            1.666667
        39           1.9500000      8.35888375E+05             0           295            1.666667
        40           2.0000000      8.57321410E+05             0           295            1.666667
        41           2.0500000      8.78754445E+05             0           295            1.666667
        42           2.1000000      9.00187481E+05             0           295            1.666667
        43           2.1500000      9.21620516E+05             1           296            1.333333
        44           2.2000000      9.43053551E+05             3           299             .333333
        45           2.2500000      9.64486586E+05             1           300             .000000
Summary of preceding table follows:       Grouped data     Ungrouped data
                                 Mean = 1.69533333E+00     1.71257705E+00
                             Variance = 5.73901895E-03     5.10747291E-03
                   Standard deviation = 7.57563130E-02     7.14665860E-02

Statistical output of branch voltage   0.4287E+06 |-1            X0003BX0003CX0003AX0003BX0003CX0003A

4 ) -------------------------------------------------------------------------------------------------------------------------------
Statistical distribution of peak voltage  for branch  "X0003A"  to  "X0003B".   Base voltage  for per unit output = 4.28660705E+05
  Interval             voltage         voltage  in     Frequency    Cumulative               Per cent
    number         in per unit      physical units     (density)     frequency     .GE. current value
        52           2.6000000      1.11451783E+06             0             0          100.000000
        53           2.6500000      1.13595087E+06           293           293            2.333333
        54           2.7000000      1.15738390E+06             3           296            1.333333
        55           2.7500000      1.17881694E+06             3           299             .333333
        56           2.8000000      1.20024997E+06             1           300             .000000
Summary of preceding table follows:       Grouped data     Ungrouped data
                                 Mean = 2.62700000E+00     2.64088059E+00
                             Variance = 1.96655518E-04     1.40112593E-04
                   Standard deviation = 1.40233918E-02     1.18369165E-02

5 ) -------------------------------------------------------------------------------------------------------------------------------
  SUMMARY   SUMMARY   SUMMARY   SUMMARY   SUMMARY   SUMMARY   SUMMARY   SUMMARY   SUMMARY   SUMMARY   SUMMARY   SUMMARY   SUMMARY
5 ) -------------------------------------------------------------------------------------------------------------------------------
A distribution of peak values among all output branches of the last data card that have the same base value follows.  This
statistical distribution is for the maximum of the peaks at all of these output branches having base  voltage  = 4.28660705E+05
  Interval             voltage         voltage  in     Frequency    Cumulative               Per cent
    number         in per unit      physical units     (density)     frequency     .GE. current value
        56           2.8000000      1.20024997E+06             0             0          100.000000
        57           2.8500000      1.22168301E+06           300           300             .000000
Summary of preceding table follows:       Grouped data     Ungrouped data
                                 Mean = 2.82500000E+00     2.83900980E+00
                             Variance = 1.52089415E-15     0.00000000E+00
                   Standard deviation = 3.89986429E-08     0.00000000E+00

Blank card ends statistical tabulation requests.  |BLANK STATISTICS

                                      Sample curve symbols : "A", "B", and "C"
                                      Theoretical curve symbol : "*"
                                      Common curve symbol : "X"

        Switch  "X0001B"  to  "X0002B"            Switch  "X0001A"  to  "X0002A"            Switch  "X0001C"  to  "X0002C"
1.32420000E+00   switchings per column          1.32420000E+00   switchings per column     1.32420000E+00   switchings per column
              Columns                                     Columns                                     Columns
          5   10   15   20   25   30                5   10   15   20   25   30                5   10   15   20   25   30
     +----+----+----+----+----+----+           +----+----+----+----+----+----+           +----+----+----+----+----+----+
    X                                         X                                         X
    X                                         X                                         X
    X                                         X                                         X
    *A                                        X                                         X
    |*A                                       B*                                        |*C
    |A*                                       | X                                       | X
    |   X                                     | B *                                     |   *  C
    |       X                                 |       X                                 |     C *
    |      A    *                             |           *B                            |       C   *
    |                 * A                     |                 *    B                  |                 *  C
    |                       *     A           |                       X                 |                       *    C
    |                      A    *             |                           *   B         |                    C      *
    |  5.5000E-02                 *     A     |  5.5000E-02              B  *           |  5.5000E-02                 *     C
    |                           *      A      |                         B *             |                         C *
    |                  A    *                 |                       * B               |                       *     C
    |               A *                       |                B*                       |            C    *
    |         A *                             |          B*                             |        C  *
    |       * A                               |       X                                 |       *  C
    |  A*                                     |   X                                     | C *
    | *A                                      | X                                       | X
    |X                                        |X                                        |*C
    X                                         *B                                        X
    X                                         X                                         X
    X                                         X                                         *C
    X                                         X                                         X
   Time (scale = 3.33333333E-04  Sec/line)   Time (scale = 3.33333333E-04  Sec/line)   Time  (scale = 3.33333333E-04  Sec/line)

        Switch  "X0003C"  to  "XX0009"            Switch  "X0001B"  to  "X0002B"            Switch  "X0001A"  to  "X0002A"
1.32420000E+00   switchings per column          1.32420000E+00   switchings per column     1.32420000E+00   switchings per column
              Columns                                     Columns                                     Columns
          5   10   15   20   25   30                5   10   15   20   25   30                5   10   15   20   25   30
     +----+----+----+----+----+----+           +----+----+----+----+----+----+           +----+----+----+----+----+----+
    X                                         X                                         X
    X                                         X                                         X
    X                                         X                                         X
    *A                                        X                                         * C
    |X                                        |X                                        |*C
    | *A                                      | X                                       | X
    |  A*                                     |  B*                                     |   X
    |      A*                                 |    B  *                                 |     C *
    |         A *                             |           *  B                          |          C*
    |                 * A                     |                B*                       |                 X
    |                       *     A           |                       *    B            |                       X
    |                           *    A        |                           *B            |                           * C
    |  1.0000E-02                 *A          |  7.0000E-01                 *   B       |  7.0000E-01                C*
    |                           *   A         |                           *  B          |                           *  C
    |                A      *                 |                   B   *                 |                    C  *
    |                 * A                     |            B    *                       |                 X
    |           X                             |         B *                             |           * C
    |     A *                                 |     B *                                 |       X
    A   *                                     |   *  B                                  |   *C
    A *                                       | X                                       C *
    A*                                        |*B                                       |*C
    *A                                        *B                                        X
    X                                         X                                         X
    X                                         *B                                        X
    X                                         X                                         X
   Time (scale = 3.33333333E-04  Sec/line)   Time (scale = 3.33333333E-04  Sec/line)   Time  (scale = 3.33333333E-04  Sec/line)

   Switch  "X0001C"  to  "X0002C"
     1.32420000E+00   switchings per column
              Columns
          5   10   15   20   25   30
     +----+----+----+----+----+----+
    X
    X
    *A
    X
    |X
    |A*
    | A *
    |       X
    |           *    A
    |          A      *
    |                       *    A
    |                         A *
    |  7.0000E-01                A*
    |                          A*
    |                       X
    |                 *  A
    |           *       A
    |    A  *
    |   X
    A *
    A*
    *A
    X
    *A
    X
   Time (scale = 3.33333333E-04  Sec/line)
 .... Questionable Kolmogorov-Smirnov test result = 4.79983461E-01
 .... Questionable Kolmogorov-Smirnov test result = 8.61125218E-01
 .... Questionable Kolmogorov-Smirnov test result = 6.22920778E-01
 .... Questionable Kolmogorov-Smirnov test result = 8.70941508E-02
 .... Questionable Kolmogorov-Smirnov test result = 7.08509700E-01
 .... Questionable Kolmogorov-Smirnov test result = 9.61921384E-01
 .... Questionable Kolmogorov-Smirnov test result = 7.92096056E-01

Actual List Sizes for the preceding solution follow.       11-Nov-18  11.00.00
   Size  1-10:    27    26    38     3   138    13    42  5310     0     0
   Size 11-20:     0     7 -9999 -9999 -9999     0     0     0    23  2972
   Size 21-30:    36   180 14783     0 -9999     9 -9999 -9999 -9999     0
Seconds for overlays  1-5  :     0.000     0.000     0.000  -- (CP: Wait; Real)
Seconds for overlays  6-11 :     0.000     0.000     0.000
Seconds for overlays 12-15 :     0.000     0.000     0.000
Seconds for time-step loop :     0.000     0.000     0.000
Seconds after DELTAT-loop  :     0.000     0.000     0.000
                               ---------------------------
                   Totals  :     0.000     0.000     0.000

