   ---   55   cards of disk file read into card cache cells  1   onward.
 <===> Done with  "/"-card sorting by data class.    Remember that the source file appears different from interpreted input data.
Alternative Transients Program (ATP),  F77 GNU Linux or DOS.  All rights reserved by Can/Am user group of Portland, Oregon, USA.
 Date (dd-mth-yy) and time of day (hh.mm.ss) = 11-Nov-18  11.00.00    Name of disk plot file, if any, is
Consult the 860-page ATP Rule Book of the Can/Am EMTP User Group in Portland,  Oregon, USA.  Source code date is
Total size of LABCOM tables = 16446853 INTEGER words.  31 VARDIM  List Sizes follow:  6002  10K  192K  900  420K  1200  15K
  120K  2250  3800  720  2K  72800  510  800K  800  90  254  800K  100K  3K  15K  192K  120  45K  260K  600  210K  1100  19  200K
--------------------------------------------------+--------------------------------------------------------------------------------
Descriptive interpretation of input data cards.   |  Input data card images are shown below, all 80 columns, character by character
                                                  0         1         2         3         4         5         6         7         8
                                                  012345678901234567890123456789012345678901234567890123456789012345678901234567890
--------------------------------------------------+--------------------------------------------------------------------------------
Comment card.   KOMPAR > 0.                       |C data:Caso0_ReEnergizacao_OTIMIZADA_SemControle.atp
Marker card preceding new EMTP data case.         |BEGIN NEW DATA CASE
Comment card.   KOMPAR > 0.                       |C $DUMMY, XYZ000
Misc. data.     1.000E-06   1.000E+00   0.000E+00 |   1.E-6      1.
Misc. data.  500  1  0  0  1  0  0  1  300  0     |     500       1       0       0       1       0       0       1     300
Statistics data.      1    1    0    0    1    0  |       1       1       0       0       1      -1                               0
Series R-L-C.   5.000E+00  7.500E-02  0.000E+00   |  X0001AX0007A                5.   75.                                         0
Series R-L-C.   5.000E+00  7.500E-02  0.000E+00   |  X0001BX0007B                5.   75.                                         0
Series R-L-C.   5.000E+00  7.500E-02  0.000E+00   |  X0001CX0007C                5.   75.                                         0
Series R-L-C.   2.000E+02  0.000E+00  0.000E+00   |  X0007AX0001A              200.                                               0
Series R-L-C.   2.000E+02  0.000E+00  0.000E+00   |  X0007BX0001B              200.                                               0
Series R-L-C.   2.000E+02  0.000E+00  0.000E+00   |  X0007CX0001C              200.                                               0
Series R-L-C.   1.321E+00  1.401E+00  0.000E+00   |  X0003BXX0008            1.32071401.3                                         0
Series R-L-C.   1.321E+00  1.401E+00  0.000E+00   |  X0003AXX0008            1.32071401.3                                         0
Series R-L-C.   1.321E+00  1.401E+00  0.000E+00   |  X0003CXX0008            1.32071401.3                                         0
Series R-L-C.   3.900E-01  4.138E-01  0.000E+00   |  XX0008                     .39 413.8                                         0
Series R-L-C.   3.000E+01  0.000E+00  0.000E+00   |  XX0009                     30.                                               0
Series R-L-C.   6.000E+02  0.000E+00  0.000E+00   |  X0002AX0010A              600.                                               0
Series R-L-C.   6.000E+02  0.000E+00  0.000E+00   |  X0002BX0010B              600.                                               0
Series R-L-C.   6.000E+02  0.000E+00  0.000E+00   |  X0002CX0010C              600.                                               0
Dynamic $INCLUDE uses fixed RAM cache to delay.   |$INSERT, C:\SimulacaoATP\1\EXT1.pch
J. Marti line, mode  1   parameters begin.        |-1X0010AX0005C                2.  0.00              -2 3
J. Marti line, mode  2   parameters begin.        |-2X0010BX0005A                2.  0.00              -2 3
J. Marti line, mode  3   parameters begin.        |-3X0010CX0005B                2.  0.00              -2 3
TR(1,1 )...  0.671-0.707-0.324                    |  0.67102882 -0.70710678 -0.32400803
TI(1,1 )...  0.000 0.000 0.003                    |  0.00000000  0.00000000  0.00341127
TR(2,1 )...  0.315 0.000 0.889                    |  0.31480489  0.00000000  0.88876566
TI(2,1 )... -0.018 0.000 0.010                    | -0.01839933  0.00000000  0.01048452
TR(3,1 )...  0.671 0.707-0.324                    |  0.67102882  0.70710678 -0.32400803
TI(3,1 )...  0.000 0.000 0.003                    |  0.00000000  0.00000000  0.00341127
Dynamic $INCLUDE uses fixed RAM cache to delay.   |$INSERT, C:\SimulacaoATP\1\OTIM2.pch
J. Marti line, mode  1   parameters begin.        |-1X0004AX0006C                2.  0.00              -2 3
J. Marti line, mode  2   parameters begin.        |-2X0004BX0006A                2.  0.00              -2 3
J. Marti line, mode  3   parameters begin.        |-3X0004CX0006B                2.  0.00              -2 3
TR(1,1 )...  0.671-0.707-0.324                    |  0.67102882 -0.70710678 -0.32400803
TI(1,1 )...  0.000 0.000 0.003                    |  0.00000000  0.00000000  0.00341127
TR(2,1 )...  0.315 0.000 0.889                    |  0.31480489  0.00000000  0.88876566
TI(2,1 )... -0.018 0.000 0.010                    | -0.01839933  0.00000000  0.01048452
TR(3,1 )...  0.671 0.707-0.324                    |  0.67102882  0.70710678 -0.32400803
TI(3,1 )...  0.000 0.000 0.003                    |  0.00000000  0.00000000  0.00341127
Dynamic $INCLUDE uses fixed RAM cache to delay.   |$INSERT, C:\SimulacaoATP\1\OTIM3.pch
J. Marti line, mode  1   parameters begin.        |-1X0005AX0004C                2.  0.00              -2 3
J. Marti line, mode  2   parameters begin.        |-2X0005BX0004A                2.  0.00              -2 3
J. Marti line, mode  3   parameters begin.        |-3X0005CX0004B                2.  0.00              -2 3
TR(1,1 )...  0.671-0.707-0.324                    |  0.67102882 -0.70710678 -0.32400803
TI(1,1 )...  0.000 0.000 0.003                    |  0.00000000  0.00000000  0.00341127
TR(2,1 )...  0.315 0.000 0.889                    |  0.31480489  0.00000000  0.88876566
TI(2,1 )... -0.018 0.000 0.010                    | -0.01839933  0.00000000  0.01048452
TR(3,1 )...  0.671 0.707-0.324                    |  0.67102882  0.70710678 -0.32400803
TI(3,1 )...  0.000 0.000 0.003                    |  0.00000000  0.00000000  0.00341127
Dynamic $INCLUDE uses fixed RAM cache to delay.   |$INSERT, C:\SimulacaoATP\1\EXT4.pch
J. Marti line, mode  1   parameters begin.        |-1X0006AX0003A                2.  0.00              -2 3
J. Marti line, mode  2   parameters begin.        |-2X0006BX0003B                2.  0.00              -2 3
J. Marti line, mode  3   parameters begin.        |-3X0006CX0003C                2.  0.00              -2 3
TR(1,1 )...  0.671-0.707-0.324                    |  0.67102882 -0.70710678 -0.32400803
TI(1,1 )...  0.000 0.000 0.003                    |  0.00000000  0.00000000  0.00341127
TR(2,1 )...  0.315 0.000 0.889                    |  0.31480489  0.00000000  0.88876566
TI(2,1 )... -0.018 0.000 0.010                    | -0.01839933  0.00000000  0.01048452
TR(3,1 )...  0.671 0.707-0.324                    |  0.67102882  0.70710678 -0.32400803
TI(3,1 )...  0.000 0.000 0.003                    |  0.00000000  0.00000000  0.00341127
Blank card ending branches.  IBR, NTOT = 26  27   |BLANK BRANCH
Switch.   5.50E-02  1.00E-03  0.00E+00  3.33E+03  |  X0001BX0002B      .055      .001               3333.STATISTICS               0
Switch.   5.50E-02  1.00E-03  0.00E+00  3.33E+03  |  X0001AX0002A      .055      .001               3333.STATISTICS               0
Switch.   5.50E-02  1.00E-03  0.00E+00  3.33E+03  |  X0001CX0002C      .055      .001               3333.STATISTICS               0
Switch.   1.00E-02  1.00E-03  0.00E+00  0.00E+00  |  X0003CXX0009       .01      .001                    STATISTICS               1
Switch.   7.00E-01  1.00E-03  0.00E+00  0.00E+00  |  X0001BX0002B        .7      .001                    STATISTICS               0
Switch.   7.00E-01  1.00E-03  0.00E+00  0.00E+00  |  X0001AX0002A        .7      .001                    STATISTICS               0
Switch.   7.00E-01  1.00E-03  0.00E+00  0.00E+00  |  X0001CX0002C        .7      .001                    STATISTICS               0
Switch.   0.00E+00  6.98E-01  0.00E+00  0.00E+00  |  X0002AX0010A                .698                                             0
Switch.   0.00E+00  6.98E-01  0.00E+00  0.00E+00  |  X0002BX0010B                .698                                             0
Switch.   0.00E+00  6.98E-01  0.00E+00  0.00E+00  |  X0002CX0010C                .698                                             0
Switch.   7.10E-01  0.00E+00  0.00E+00  0.00E+00  |  X0002AX0010A       .71                                                       0
Switch.   7.10E-01  0.00E+00  0.00E+00  0.00E+00  |  X0002BX0010B       .71                                                       0
Switch.   7.10E-01  0.00E+00  0.00E+00  0.00E+00  |  X0002CX0010C       .71                                                       0
Blank card ending switches.   KSWTCH = 13.        |BLANK SWITCH
Source.   4.29E+05  6.00E+01  0.00E+00 -1.00E+00  |14X0007A  428660.705       60.                                     -1.      100.
Source.   4.29E+05  6.00E+01 -1.20E+02 -1.00E+00  |14X0007B  428660.705       60.     -120.                           -1.      100.
Source.   4.29E+05  6.00E+01 -2.40E+02 -1.00E+00  |14X0007C  428660.705       60.     -240.                           -1.      100.
Blank card ends electric sources.  KCONST = 3     |BLANK SOURCE

     Total network loss  P-loss  by summing injections =   2.698916515412E+08

Card of names for time-step loop output.          |  X0003AX0003BX0003C
Output voltage differences for pairs of A6 names  |-5X0003BX0003CX0003AX0003BX0003CX0003A
Blank card ending requests for output variables.  |BLANK OUTPUT

Column headings for the  7   EMTP output variables follow.  These are divided among the 5 possible classes as follows ....
  First  6     output variables are electric-network voltage differences (upper voltage minus lower voltage);
  Next   1     output variables are branch currents (flowing from the upper node to the lower node);
   Step      Time      X0003A     X0003B     X0003C     X0003B     X0003A     X0003C     X0003C
                                                        X0003C     X0003B     X0003A     XX0009
 ***      Phasor I(0) =  9.4024776E+01                     Switch  "X0001B"  to  "X0002B"  closed in the steady-state.
 ***      Phasor I(0) =  4.2139242E+02                     Switch  "X0001A"  to  "X0002A"  closed in the steady-state.
 ***      Phasor I(0) = -5.1184585E+02                     Switch  "X0001C"  to  "X0002C"  closed in the steady-state.
 ***                    Switch  "X0002A"  to  "X0010A"  closed  after  0.00000000E+00  sec.
 ***                    Switch  "X0002B"  to  "X0010B"  closed  after  0.00000000E+00  sec.
 ***                    Switch  "X0002C"  to  "X0010C"  closed  after  0.00000000E+00  sec.
      0       0.0  182705.485  -286097.2 101617.741 -387714.94 468802.687 -81087.745        0.0
    500     .5E-3  220766.076 -271242.05 49940.5209 -321182.57 492008.124 -170825.55        0.0
   1000     .1E-2  252023.303 -247231.75 -4000.6558  -243231.1 499255.056 -256023.96        0.0
   1500     .0015  273426.058 -214669.84  -57700.55 -156969.29 488095.897 -331126.61        0.0
   2000      .002  539161.518 -96542.766 -508924.96 412382.196 635704.284 -.104809E7        0.0
   2500     .0025  538693.488 64358.2767 -625568.32 689926.597 474335.211 -.116426E7        0.0
   3000      .003  476233.135 198839.299 -701570.87 900410.169 277393.836  -.11778E7        0.0
   3500     .0035  379460.039 308982.663 -718806.22 .1027789E7 70477.3764 -.109827E7        0.0
   4000      .004  267045.517 421859.361 -675436.27 .1097296E7 -154813.84 -942481.79        0.0
   4500     .0045  144233.683 520132.701 -617148.27 .1137281E7 -375899.02 -761381.96        0.0
   5000      .005  -524.39606 587655.174 -537708.03 .1125363E7 -588179.57 -537183.64        0.0
   5500     .0055  -236460.35 605058.992 -332371.27 937430.267 -841519.34 -95910.929        0.0
   6000      .006  -430472.43 562470.157 -105914.89 668385.042 -992942.59 324557.546        0.0
   6500     .0065  -543953.59 496566.481  85957.833 410608.648 -.104052E7 629911.422        0.0
   7000      .007  -604992.06 415651.652 235488.974 180162.678 -.102064E7 840481.034        0.0
   7500     .0075  -627937.35 326076.218 331850.262 -5774.0442 -954013.57 959787.609        0.0
   8000      .008  -618994.72 222963.249 394150.532 -171187.28 -841957.97 .1013145E7        0.0
   8500     .0085  -583587.52 109649.627 436347.559 -326697.93 -693237.15 .1019935E7        0.0
   9000      .009  -494314.36  3161.0688 431369.434 -428208.37 -497475.43 925683.798        0.0
   9500     .0095  -367507.85 -78618.546 379824.036 -458442.58 -288889.31 747331.889        0.0
  10000       .01  -250894.97 -136804.54 321969.472 -458774.01 -114090.43 572864.444        0.0
 ***                                                             Close switch  "X0003C"  to  "XX0009"  after  1.00010000E-02  sec.
  10500     .0105  -236033.07 -261211.63 28281.1998 -289492.83 25178.5691 264314.265 942.706661
  11000      .011  -151451.97 -296900.58 26806.3952 -323706.98 145448.614 178258.366 893.546508
  11500     .0115   -87080.31 -335131.77 27514.3259  -362646.1 248051.462 114594.636 917.144197
  12000      .012  -41720.984  -374984.9 30965.4188 -405950.31 333263.912 72686.4025 1032.18063
  12500     .0125   -5867.893 -397680.11 33971.0578 -431651.16 391812.213 39838.9508 1132.36859
  13000      .013  19738.2775 -421722.39 37188.3248 -458910.72 441460.669 17450.0473 1239.61083
  13500     .0135  2756.87094 -456098.87 41142.4085 -497241.28 458855.745 38385.5375 1371.41362
  14000      .014  -35166.356 -554519.49 53716.2826 -608235.78 519353.137 88882.6391 1790.54275
  14500     .0145  57771.7198 -532803.05 63694.3416 -596497.39 590574.769 5922.62176 2123.14472
  15000      .015  159026.519 -485686.93 66450.8464 -552137.78 644713.452 -92575.673 2215.02821
  15500     .0155  248930.729 -434867.62 60937.5777  -495805.2 683798.353 -187993.15 2031.25259
  16000      .016   341715.74 -372251.18 51697.8979 -423949.08 713966.922 -290017.84 1723.26326
  16500     .0165  438221.613  -288400.9 40775.9504 -329176.85 726622.518 -397445.66 1359.19835
  17000      .017  532997.434 -180111.87 27962.3274  -208074.2 713109.303 -505035.11 932.077579
  17500     .0175  610723.863 -50748.241 14211.5513 -64959.792 661472.104 -596512.31 473.718378
  18000      .018  649120.484 91736.1234 4568.81621 87167.3072 557384.361 -644551.67 152.293874
  18500     .0185  652975.288 236360.848 -288.66326 236649.512  416614.44 -653263.95 -9.6221086
  19000      .019  617836.699 364452.491 -6666.5903 371119.081 253384.208 -624503.29 -222.21968
  19500     .0195  546969.687 473929.932 -14889.665 488819.597 73039.7552 -561859.35 -496.32217
  20000       .02  441673.465 559313.511 -24017.016 583330.528 -117640.05 -465690.48 -800.56721
  20500     .0205  310165.456 616425.888 -33088.316 649514.204 -306260.43 -343253.77 -1102.9439
  21000      .021  162907.497 642661.409  -41683.18 684344.589 -479753.91 -204590.68 -1389.4393
  21500     .0215  7727.25568 631566.173   -49347.3 680913.472 -623838.92 -57074.555   -1644.91
  22000      .022   -147420.1 582215.638 -54394.711 636610.349 -729635.74 93025.3898  -1813.157
  22500     .0225  -283997.31 511795.745 -56180.771 567976.516 -795793.06  227816.54 -1872.6924
  23000      .023  -391885.98 432831.805 -55074.868 487906.673 -824717.79 336811.117 -1835.8289
  23500     .0235  -470739.61 347262.543 -52072.257   399334.8 -818002.16 418667.355 -1735.7419
  24000      .024  -522341.85 256181.817 -47710.554 303892.371 -778523.67 474631.301 -1590.3518
  24500     .0245  -548392.06 162870.597 -42114.921 204985.518 -711262.66 506277.144 -1403.8307
  25000      .025  -550980.53 72417.1988 -35485.551  107902.75 -623397.73  515494.98 -1182.8517
  25500     .0255  -534763.21 -11930.369 -28056.029 16125.6598 -522832.84 506707.177 -935.20095
  26000      .026  -505319.98 -90158.606 -19472.159 -70686.446 -415161.37 485847.818 -649.07197
  26500     .0265   -466414.1 -163672.55 -9313.8151 -154358.73 -302741.55 457100.284  -310.4605
  27000      .027  -420918.72 -234277.08  2021.4504 -236298.54 -186641.64 422940.175 67.3816799
  27500     .0275  -370112.27 -302046.48 13692.6485 -315739.13 -68065.793 383804.922 456.421617
  28000      .028  -314142.88 -365867.51 24928.4647 -390795.98  51724.637 339071.342 830.948824
  28500     .0285  -252394.77  -424026.3 35150.5699 -459176.87  171631.53 287545.338 1171.68566
  29000      .029  -183573.07 -474377.06  43870.934 -518247.99 290803.987 227444.006 1462.36447
  29500     .0295  -107275.35 -514770.59 50674.5371 -565445.13 407495.242 157949.884 1689.15124
  30000       .03  -24348.546 -542592.53 55403.4552 -597995.98 518243.981 79752.0014 1846.78184
  30500     .0305  64483.9686 -553683.24 58122.5204 -611805.76  618167.21 -6361.4482 1937.41735
  31000      .031  158266.432 -543426.37 58950.4104 -602376.78 701692.802 -99316.022 1965.01368
  31500     .0315  254349.555 -508927.02 57939.3085 -566866.33 763276.575 -196410.25 1931.31028
  32000      .032  348178.793 -449886.49 55091.8296 -504978.32 798065.287 -293086.96 1836.39432
  32500     .0325   434169.08  -368115.2 50446.0078 -418561.21 802284.283 -383723.07 1681.53359
  33000      .033  506800.226 -266860.17  44089.935 -310950.11 773660.397 -462710.29  1469.6645
  33500     .0335  561160.733 -150754.59 36162.1362 -186916.73 711915.323  -524998.6 1205.40454
  34000      .034  593182.214 -25842.038 26927.9744 -52770.013 619024.252 -566254.24 897.599148
  34500     .0345  599979.599   100872.6 16800.3899   84072.21 499106.999 -583179.21 560.012995
  35000      .035  580236.131 222168.624 6237.08281 215931.541 358067.507 -573999.05  207.90276
  35500     .0355  534525.771 331505.271 -4355.8402 335861.112 203020.499 -538881.61 -145.19467
  36000      .036   465294.54 423657.812 -14634.556 438292.368  41636.728  -479929.1 -487.81855
  36500     .0365  376517.711 494962.461 -24289.994 519252.455 -118444.75  -400807.7 -809.66647
  37000      .037  273205.013 543354.216 -33040.841 576395.057  -270149.2 -306245.85 -1101.3614
  37500     .0375  160793.759 568225.601 -40643.382 608868.983 -407431.84 -201437.14 -1354.7794
  38000      .038  44674.4495 570236.341 -46879.743 617116.084 -525561.89 -91554.193 -1562.6581
  38500     .0385  -70009.762  551197.27 -51537.862 602735.132 -621207.03 18471.9002 -1717.9287
  39000      .039  -178529.74 513848.286 -54414.791 568263.078 -692378.03 124114.953 -1813.8264
  39500     .0395  -276862.17 461381.447 -55346.525 516727.971 -738243.62 221515.647 -1844.8842
  40000       .04  -361956.04 396903.688 -54242.169 451145.857 -758859.73 307713.873 -1808.0723
  40500     .0405  -431768.88 323115.048 -51101.842  374216.89 -754883.93 380667.036 -1703.3947
  41000      .041  -485074.43  242261.26  -46021.65  288282.91 -727335.69 439052.785  -1534.055
  41500     .0415   -521239.1 156219.758 -39190.683 195410.441 -677458.86 482048.417 -1306.3561
  42000      .042  -540086.73 66609.7268 -30873.715 97483.4419 -606696.46 509213.016 -1029.1238
  % % % % % %   Suspended simulation;  plot data space exhausted;  SPY SPACE is required.   LIMBUF =  340000.
  % % % % % %   Suspended simulation;  plot data space exhausted;  SPY SPACE is required.   LIMBUF =  340000.
  +++  Time-sharing disabled.   Send  user-keyed interrupt to silence alarm.
   Current values.  INDBUF  INDBEG  LIMBUF  MFLUSH  NUMDCD  KCARD1  KCARD2
                    339994      50  340000    1000      46       1      50
Plot timespan now in memory (in sec) = 0.00000000E+00   4.24930000E-02
   ++++  Begin plot-data copy from memory to disk.   MFLUSH, INDBUF, N4, Tbeg,  Tend = 1001  339994       1  -1.00000E+00
1.00000E+19
  42500     .0425  -541812.85 -25076.458 -21385.049 -3691.4089 -516736.39 520427.798 -712.83496
  43000      .043   -526891.4 -117291.33 -11069.918 -106221.41 -409600.07  515821.48 -368.99727
  43500     .0435  -495976.68 -208208.58 -297.44169 -207911.14  -287768.1 495679.236 -9.9147232
  44000      .044  -449856.25 -295536.91 10545.4267 -306082.34 -154319.34 460401.681 351.514222
  44500     .0445  -389494.34 -376461.32 21066.2285 -397527.55 -13033.019 410560.566 702.207617
  45000      .045  -316141.65 -447743.16 30882.1035 -478625.26 131601.507 347023.755 1029.40345
  45500     .0455   -231463.2 -505958.23 39633.0331 -545591.26 274495.034 271096.231  1321.1011
  46000      .046   -137634.2 -547810.72 46995.2459 -594805.96 410176.518 184629.445  1566.5082
  46500     .0465  -37365.971 -570450.79 52697.2088   -623148. 533084.817 90063.1794 1756.57363
  47000      .047  66141.3347 -571761.37 56535.2579 -628296.63 637902.708 -9606.0768  1884.5086
  47500     .0475   169294.83 -550612.09 58383.4425 -608995.53 719906.921 -110911.39 1946.11475
  48000      .048  268240.289 -507063.09 58195.3041 -565258.39 775303.379 -210044.99 1939.84347
  48500     .0485  359037.794 -442469.01  55999.809 -498468.82 801506.803 -303037.98  1866.6603
  49000      .049  437884.274 -359438.76 51894.3785 -411333.14 797323.033  -385989.9 1729.81262
  49500     .0495  501355.261 -261654.48 46036.7142  -307691.2 763009.744 -455318.55 1534.55714
  50000       .05  546624.979 -153593.76 38637.0538 -192230.81 700218.735 -507987.92 1287.90179
  50500     .0505  571638.141 -40203.752 29951.8707 -70155.623 611841.893 -541686.27 998.395691
  51000      .051  575226.898 73439.3747 20278.0216 53161.3531 501787.523 -554948.88 675.934053
  51500     .0515  557174.519 182462.484 9945.40529 172517.079 374712.034 -547229.11  331.51351
  52000      .052  518223.557  282490.84  -692.5413 283183.381 235732.717  -518916.1  -23.08471
  52500     .0525  460024.209 369873.171 -11269.794 381142.965 90151.0382   -471294.  -375.6598
  53000      .053  385025.817 441811.018 -21419.547 463230.565 -56785.201 -406445.36 -713.98489
  53500     .0535   296323.76 496387.656 -30786.853 527174.509  -200063.9 -327110.61 -1026.2284
  54000      .054   197479.96 532513.888 -39041.689 571555.577 -335033.93 -236521.65 -1301.3896
  54500     .0545  92336.9633 549821.149  -45891.27 595712.419 -457484.19 -138228.23  -1529.709
  55000      .055  -15158.251 548532.737 -51090.549 599623.286 -563690.99 -35932.299 -1703.0183
  55500     .0555   -121112.1 529336.229 -54450.656 583786.885 -650448.33 66661.4416 -1815.0219
  56000      .056  -221820.98 493273.327 -55845.652 549118.979 -715094.31 165975.327 -1861.5217
  56500     .0565  -313884.84 441660.991 -55217.777 496878.768 -755545.83 258667.062 -1840.5926
 ***                                                             Open  switch  "X0001B"  to  "X0002B"  after  5.68270000E-02  sec.
  57000      .057  -394295.59 376054.232 -52580.894 428635.127 -770349.82 341714.693 -1752.6965
  57500     .0575  -460500.91  298250.98 -48021.646 346272.626 -758751.89 412479.268 -1600.7215
  58000      .058  -510448.62 210326.135 -41697.805  252023.94 -720774.76 468750.819 -1389.9268
  58500     .0585  -542609.55 114661.803 -33833.732 148495.535 -657271.35 508775.818 -1127.7911
  59000      .059  -565564.42 46856.5997 -26030.441 72887.0409 -612421.02 539533.975 -867.68137
 ***                                                             Open  switch  "X0001A"  to  "X0002A"  after  5.94500000E-02  sec.
  59500     .0595   -558850.3 -10984.558 -16086.911 5102.35318 -547865.74 542763.387 -536.23038
  60000       .06  -532779.02 -70965.214 -5440.0016 -65525.212  -461813.8 527339.017 -181.33339
 ***                                                             Open  switch  "X0001C"  to  "X0002C"  after  6.00890000E-02  sec.
  60500     .0605  -489819.17 -134304.66 5410.78304 -139715.45 -355514.51 495229.957 180.359435
  61000      .061  -430630.22 -199468.77 16079.9894 -215548.76 -231161.45 446710.209 535.999646
  61500     .0615  -382104.27 -261627.39 27536.5921 -289163.99 -120476.88 409640.866 917.886405
  62000      .062  -318764.16  -307063.4 34787.1086 -341850.51 -11700.755 353551.267 1159.57029
  62500     .0625  -258670.01 -334569.64 33412.7428 -367982.39  75899.636 292082.752 1113.75809
  63000      .063  -200872.47 -371725.03 27438.4387 -399163.47 170852.567 228310.906 914.614625
  63500     .0635  -127116.79 -403096.65 21284.9379 -424381.59 275979.869 148401.723 709.497929
  64000      .064  -41448.119 -427522.91 14530.5015 -442053.41 386074.793 55978.6203 484.350051
  64500     .0645  48673.9705 -449240.58 7122.58912 -456363.17 497914.552 -41551.381 237.419637
  65000      .065  121081.338 -458817.57 -126.31425 -458691.25 579898.904 -121207.65 -4.2104751
  65500     .0655   184000.18  -464252.8 -6896.2474 -457356.55 648252.979 -190896.43 -229.87491
  66000      .066  205380.569  -483851.5 -10812.459 -473039.04 689232.068 -216193.03 -360.41531
  66500     .0665  244548.821 -489899.86 -10957.752  -478942.1 734448.676 -255506.57 -365.25839
  67000      .067  299891.684 -479204.81 -9682.8094   -469522. 779096.492 -309574.49 -322.76031
  67500     .0675  358549.325 -458786.12 -7304.7311 -451481.39 817335.441 -365854.06 -243.49104
  68000      .068  408944.302 -433509.96 -3643.6901 -429866.27 842454.263 -412587.99 -121.45634
  68500     .0685  442762.891 -392931.13 1154.26923  -394085.4 835694.018 -441608.62 38.4756411
  69000      .069  461265.417 -341550.36 6412.01166 -347962.37 802815.776 -454853.41 213.733722
  69500     .0695   467598.89 -286440.19 11827.1153  -298267.3 754039.079 -455771.77 394.237176
  70000       .07  485420.253 -224006.13 14036.0589 -238042.19 709426.383 -471384.19 467.868631
  70500     .0705  493545.252 -167169.31 13574.3463 -180743.65 660714.559 -479970.91 452.478211
  71000      .071  497638.876 -109187.25 12456.4822 -121643.73 606826.125 -485182.39 415.216072
  71500     .0715  493810.197 -43528.494 11065.5241 -54594.018 537338.691 -482744.67 368.850805
  72000      .072  476580.363 31342.7489 8852.86015 22489.8888 445237.614  -467727.5 295.095338
  72500     .0725  439595.102 108090.729 5938.26048 102152.468 331504.373 -433656.84 197.942016
  73000      .073  398363.157 179173.496 2650.50177 176522.994 219189.661 -395712.66 88.3500589
  73500     .0735  347574.495 230762.357 -349.03935 231111.396 116812.138 -347923.53 -11.634645
  74000      .074  292029.513 271684.073 -1908.6709 273592.744 20345.4397 -293938.18 -63.622365
  74500     .0745  241225.062 311531.818 -2474.7411  314006.56 -70306.757  -243699.8 -82.491369
  75000      .075  185063.297 355697.543 -2551.1674  358248.71 -170634.25 -187614.46 -85.038913
  75500     .0755  119722.995 397491.952 -1948.6166 399440.569 -277768.96 -121671.61 -64.953886
  76000      .076  43934.8995 438184.395 -499.52687 438683.922  -394249.5 -44434.426 -16.650896
  76500     .0765  -25057.992 467566.242 1461.27762 466104.965 -492624.23 26519.2694 48.7092539
  77000      .077  -90959.397  479818.64 4046.62178 475772.018 -570778.04  95006.019 134.887393
  77500     .0775  -146528.45 484337.407 6129.00936 478208.398 -630865.86 152657.462 204.300312
  78000      .078  -198557.84 478202.802 7079.18879 471123.613 -676760.64 205637.024  235.97296
  78500     .0785  -254739.82 470525.248 7454.53359 463070.715 -725265.07 262194.353 248.484453
  79000      .079  -309147.02 460536.717 7695.36016 452841.357 -769683.74 316842.383 256.512005
  79500     .0795  -360281.18 450163.497 7456.80483 442706.693 -810444.68 367737.988 248.560161
  80000       .08  -398889.12 426232.772  6633.8534 419598.918 -825121.89 405522.969 221.128447
  80500     .0805  -426209.18 388660.555 5557.14377 383103.411 -814869.73 431766.323 185.238126
  81000      .081  -445155.13 339329.609 4268.87426 335060.735 -784484.74 449424.004 142.295809
  81500     .0815  -460832.94 279840.181 3287.33218 276552.849 -740673.12 464120.273 109.577739
  82000      .082  -474399.06 223205.822 2678.03528 220527.787 -697604.88 477077.097 89.2678427
  82500     .0825  -481232.22 169649.678 2135.85045 167513.828  -650881.9 483368.071 71.1950149
  83000      .083  -480381.21 116496.433 1682.08005 114814.353 -596877.64 482063.292 56.0693352
  83500     .0835   -465844.6 55237.4271 1668.17782 53569.2493 -521082.02 467512.774 55.6059273
  84000      .084  -437895.76 -10432.119 2136.54149  -12568.66 -427463.64 440032.298 71.2180495
  84500     .0845  -402440.61 -79805.821 3034.68835 -82840.509 -322634.79 405475.303 101.156278
  % % % % % %   Suspended simulation;  plot data space exhausted;  SPY SPACE is required.   LIMBUF =  340000.
  % % % % % %   Suspended simulation;  plot data space exhausted;  SPY SPACE is required.   LIMBUF =  340000.
  +++  Time-sharing disabled.   Send  user-keyed interrupt to silence alarm.
   Current values.  INDBUF  INDBEG  LIMBUF  MFLUSH  NUMDCD  KCARD1  KCARD2
                    339994      50  340000    1001      46       1      50
Plot timespan now in memory (in sec) = 4.24919985E-02   8.49850000E-02
   ++++  Begin plot-data copy from memory to disk.   MFLUSH, INDBUF, N4, Tbeg,  Tend = 1002  339994       1  -1.00000E+00
1.00000E+19
  85000      .085  -361771.96 -146550.48 4078.74672 -150629.22 -215221.48 365850.702 135.958224
  85500     .0855  -320719.75 -205373.15 4763.08497 -210136.23 -115346.61 325482.836 158.769499
  86000      .086  -278692.44 -256403.33 5023.10355 -261426.43 -22289.115 283715.545 167.436785
  86500     .0865  -229847.81 -302348.57 5145.69783 -307494.27 72500.7597 234993.512 171.523261
  87000      .087  -169658.34 -346328.41 5202.74714 -351531.16 176670.075 174861.085 173.424905
  87500     .0875  -102211.91 -386748.28 5060.59914 -391808.88 284536.364 107272.512 168.686638
  88000      .088  -33482.671  -423472.5 4802.80218  -428275.3 389989.826 38285.4732 160.093406
  88500     .0885  31476.4593 -451184.45 4363.46197 -455547.91  482660.91 -27112.997 145.448732
  89000      .089  88837.0416 -469560.91 3840.53891 -473401.45 558397.952 -84996.503 128.017964
  89500     .0895  140089.433 -476485.67 3282.35619 -479768.03 616575.102 -136807.08 109.411873
  90000       .09  193684.965 -476062.73 2690.92579 -478753.65 669747.693 -190994.04 89.6975262
  90500     .0905  250244.087 -470745.41 2121.24631 -472866.65 720989.494 -248122.84 70.7082103
  91000      .091  304639.144 -459924.83 1762.81032 -461687.64 764563.978 -302876.33  58.760344
  91500     .0915  353683.064 -442509.35  1721.5338 -444230.89 796192.416 -351961.53 57.3844599
  92000      .092   391046.84 -414724.11 1901.21123 -416625.32 805770.948 -389145.63 63.3737075
  92500     .0925  417265.057 -377682.82 2205.86882 -379888.69 794947.881 -415059.19 73.5289605
  93000      .093   433553.35 -331567.98 2394.98689 -333962.96 765121.327 -431158.36 79.8328964
  93500     .0935  447221.146 -282789.21   2414.187  -285203.4 730010.359 -444806.96 80.4729001
  94000      .094  458101.885 -232554.06 2436.66331 -234990.72  690655.94 -455665.22 81.2221103
  94500     .0945  463439.402 -179191.33 2561.08844 -181752.42 642630.734 -460878.31 85.3696146
  95000      .095  460939.097 -122205.28 2693.93431 -124899.22 583144.381 -458245.16 89.7978103
  95500     .0955   444714.02 -59783.873 2768.12233 -62551.995 504497.893  -441945.9 92.2707442
  96000      .096  417525.593 5573.87969 2717.55879  2856.3209 411951.713 -414808.03  90.585293
  96500     .0965  381445.974 71254.6429 2518.93814 68735.7047 310191.331 -378927.04 83.9646047
  97000      .097  343436.785 131560.543 2265.15698 129295.386 211876.241 -341171.63 75.5052327
  97500     .0975  303891.206 186970.426 2047.36932 184923.057  116920.78 -301843.84 68.2456439
  98000      .098  260880.914  238988.08 1868.38903 237119.691 21892.8341 -259012.52 62.2796342
  98500     .0985  212025.315 288052.163 1755.12632 286297.036 -76026.848 -210270.19 58.5042108
  99000      .099  154585.719 335564.229 1760.33545 333803.894 -180978.51 -152825.38 58.6778483
  99500     .0995  91826.7587 379405.828 1816.07219 377589.756 -287579.07 -90010.686 60.5357396
 100000       0.1  28077.1398 416169.928 1899.30017 414270.628 -388092.79  -26177.84 63.3100055
 100500     .1005  -31305.162 441950.534 2002.85288 439947.681  -473255.7 33308.0144 66.7617628
 101000      .101   -86834.03 458049.135  2119.2306 455929.904 -544883.17  88953.261 70.6410201
 101500     .1015  -140280.09 466132.374 2267.61624 463864.758 -606412.47 142547.711 75.5872081
 102000      .102  -193486.26 468542.814  2471.7145 466071.099 -662029.07 195957.974 82.3904834
 102500     .1025  -246604.21 466584.098 2685.81578 463898.282 -713188.31 249290.029 89.5271927
 103000      .103  -297615.51 458701.086 2818.44677 455882.639  -756316.6 300433.959 93.9482255
 103500     .1035  -341271.21 441529.151 2870.64595 438658.505 -782800.36 344141.852 95.6881982
 104000      .104  -374897.53 413043.031  2883.9431 410159.088 -787940.56 377781.469 96.1314366
 104500     .1045  -400126.22 375735.955  2895.7792 372840.176 -775862.17 403021.997 96.5259733
 105000      .105  -418681.42 332081.293 2921.86069 329159.433 -750762.71 421603.279 97.3953563
 105500     .1055  -432933.34 285806.792 2930.67136 282876.121 -718740.14 435864.014 97.6890454
 106000      .106  -442353.45 237543.655  2896.6109 234647.044  -679897.1 445250.057 96.5536965
 106500     .1065  -445798.63  186741.72 2826.09035 183915.629 -632540.35 448624.722 94.2030116
 107000      .107  -438457.47 130636.602 2755.47785 127881.124 -569094.07 441212.948 91.8492615
 107500     .1075  -420080.81 69057.1988 2732.27114 66324.9276 -489138.01 422813.078 91.0757047
 108000      .108  -393482.23 5165.77513 2758.39676 2407.37836 -398648.01 396240.631 91.9465588
 108500     .1085  -361062.46 -58407.211 2804.39922 -61211.611 -302655.25 363866.862  93.479974
 109000      .109  -326043.58 -117979.91 2831.49509  -120811.4 -208063.68 328875.078 94.3831695
 109500     .1095  -287640.91 -173313.75 2828.42669 -176142.18 -114327.15 290469.333 94.2808897
 110000       .11   -244732.6 -224656.74 2788.07784 -227444.82 -20075.864 247520.682 92.9359279
 110500     .1105  -194122.63 -274596.35 2722.70293 -277319.05 80473.7147 196845.336 90.7567643
 111000      .111  -137388.04 -322480.38 2673.04875 -325153.43 185092.335 140061.091 89.1016251
 111500     .1115  -78194.682 -365601.75 2641.74026 -368243.49 287407.069 80836.4226 88.0580087
 112000      .112  -19400.052 -401796.39 2608.10581  -404404.5 382396.338 22008.1579 86.9368603
 112500     .1125  36049.7313 -428503.27 2546.45122 -431049.72 464553.004  -33503.28 84.8817075
 113000      .113  89071.2154 -446188.57  2427.1668 -448615.74 535259.784 -86644.049 80.9055599
 113500     .1135  141165.572 -456142.89 2247.98507 -458390.88 597308.466 -138917.59 74.9328357
 114000      .114  194167.624 -461046.62 2062.43121 -463109.06 655214.248 -192105.19 68.7477069
 114500     .1145  245911.685 -460110.52 1926.94649 -462037.47 706022.206 -243984.74 64.2315498
 115000      .115  292968.868 -451704.03 1846.03683 -453550.07 744672.901 -291122.83  61.534561
 115500     .1155  332753.633 -434477.33 1790.40304 -436267.74 767230.967 -330963.23 59.6801013
 116000      .116   363678.74 -407687.28 1727.39284 -409414.67 771366.018 -361951.35 57.5797613
 116500     .1165  386959.044 -372782.09 1622.11046  -374404.2 759741.132 -385336.93 54.0703486
 117000      .117  405085.341 -332326.46 1489.44058  -333815.9 737411.798  -403595.9 49.6480194
 117500     .1175  419497.648 -288802.07 1383.69767 -290185.76 708299.714 -418113.95 46.1232556
 118000      .118  428265.054 -241667.75 1331.21538 -242998.97 669932.807 -426933.84  44.373846
 118500     .1185  428972.183 -190389.29 1324.22922 -191713.52 619361.474 -427647.95 44.1409741
 119000      .119  419825.795 -134353.81 1331.45147 -135685.26 554179.607 -418494.34 44.3817156
 119500     .1195  401101.962 -74355.998 1324.74418 -75680.742  475457.96 -399777.22 44.1581395
 120000       .12  374698.975 -12412.734  1278.2703 -13691.004 387111.709  -373420.7 42.6090101
 120500     .1205  344112.047 48323.8645 1209.03107 47114.8334 295788.183 -342903.02 40.3010358
 121000      .121  310647.123   105958.5 1159.23678 104799.263 204688.623 -309487.89  38.641226
 121500     .1215  272824.159 161040.017 1150.52606 159889.491 111784.142 -271673.63 38.3508685
 122000      .122  229449.285 213800.985 1183.26193 212617.723 15648.2999 -228266.02 39.4420642
 122500     .1225  179664.854 264717.286 1232.92003 263484.366 -85052.432 -178431.93 41.0973344
 123000      .123  125198.132 312458.286 1272.17741 311186.109 -187260.15 -123925.95 42.4059137
 123500     .1235  68541.3303  355125.91 1282.72505 353843.185 -286584.58 -67258.605 42.7575018
 124000      .124  13363.9426 389982.787 1282.63478 388700.152 -376618.84 -12081.308 42.7544928
 124500     .1245  -39467.223 416328.724 1309.31234 415019.412 -455795.95 40776.5354 43.6437448
 125000      .125  -91182.358 435365.196 1377.52752 433987.668 -526547.55 92559.8851 45.9175839
 125500     .1255   -142355.1 447874.324 1475.41262 446398.912 -590229.43 143830.513 49.1804205
 126000      .126  -193344.85 454683.061 1575.67423 453107.387 -648027.91 194920.526 52.5224745
 126500     .1265  -242055.65 454827.517 1652.00255 453175.514 -696883.17 243707.655 55.0667518
 127000      .127  -285973.25 447064.401  1696.5503 445367.851 -733037.65 287669.799 56.5516768
  % % % % % %   Suspended simulation;  plot data space exhausted;  SPY SPACE is required.   LIMBUF =  340000.
  % % % % % %   Suspended simulation;  plot data space exhausted;  SPY SPACE is required.   LIMBUF =  340000.
  +++  Time-sharing disabled.   Send  user-keyed interrupt to silence alarm.
   Current values.  INDBUF  INDBEG  LIMBUF  MFLUSH  NUMDCD  KCARD1  KCARD2
                    339994      50  340000    1002      46       1      50
Plot timespan now in memory (in sec) = 8.49839970E-02   1.27477000E-01
   ++++  Begin plot-data copy from memory to disk.   MFLUSH, INDBUF, N4, Tbeg,  Tend = 1003  339994       1  -1.00000E+00
1.00000E+19
 127500     .1275  -322300.97 429817.566 1731.03622  428086.53 -752118.53 324032.002 57.7012075
 128000      .128   -351154.9 403874.214 1783.88563 402090.329 -755029.12  352938.79 59.4628542
 128500     .1285  -374075.66 371257.576 1857.55897 369400.017 -745333.24 375933.223 61.9186324
 129000      .129  -391931.83 333549.231 1934.20299 331615.028 -725481.07 393866.037 64.4734329
 129500     .1295  -405074.31 291964.088 1995.93108 289968.157  -697038.4 407070.242  66.531036
 130000       .13  -411963.14 246229.986 2025.26636  244204.72 -658193.13 413988.408 67.5088788
 130500     .1305  -410658.42  195739.08 2024.57646 193714.503  -606397.5 412682.999 67.4858821
 131000      .131  -399902.89 140084.422  2018.9913 138065.431 -539987.31 401921.882   67.29971
 131500     .1315  -381103.81 81119.4121 2028.74061 79090.6715 -462223.22 383132.551 67.6246869
 132000      .132  -356396.91 21220.4902  2050.7029 19169.7873  -377617.4 358447.616 68.3567634
 132500     .1325  -327306.32 -37634.637 2067.06833 -39701.705 -289671.68 329373.384 68.9022778
 133000      .133  -294305.46 -94331.641 2063.10394 -96394.745 -199973.82 296368.561 68.7701314
 133500     .1335  -256674.72 -148910.96 2025.44339 -150936.41 -107763.76 258700.166 67.5147796
 134000      .134  -213233.41 -201900.39 1963.52093 -203863.91 -11333.016 215196.927 65.4506976
 134500     .1345  -164158.22 -253162.45 1904.84999  -255067.3 89004.2312 166063.066 63.4949998
 135000      .135  -111811.48 -300672.96 1862.49695 -302535.46 188861.488 113673.972 62.0832316
 135500     .1355  -58592.445 -342489.73  1828.5387 -344318.27 283897.282 60420.9834 60.9512901
 136000      .136  -6310.0961 -377057.64 1783.83733 -378841.48 370747.549  8093.9334 59.4612444
 136500     .1365  44723.9912 -404086.92 1714.49775 -405801.42 448810.915 -43009.493 57.1499251
 137000      .137  94896.0069 -424118.74 1615.49676 -425734.24 519014.747  -93280.51 53.8498919
 137500     .1375  145010.416 -438191.36 1504.51716 -439695.88 583201.779  -143505.9 50.1505719
 138000      .138  194193.764 -446319.06 1409.06817 -447728.13 640512.826  -192784.7 46.9689392
 138500     .1385  239960.553 -447118.84 1336.11959 -448454.96  687079.39 -238624.43 44.5373198
 139000      .139  280343.707 -439655.59 1274.26445 -440929.86 719999.301 -279069.44 42.4754817
 139500     .1395  314035.816 -423418.27 1205.83589 -424624.11 737454.086 -312829.98 40.1945296
 140000       .14  341400.708 -399259.95 1119.51154 -400379.46 740660.654  -340281.2 37.3170513
 140500     .1405  363266.083 -368572.81 1016.88122 -369589.69 731838.893  -362249.2 33.8960407
 141000      .141  380602.576  -333038.4 918.354976 -333956.75 713640.972 -379684.22 30.6118325
 141500     .1415   392630.96  -293065.3 846.860856 -293912.17 685696.264  -391784.1 28.2286952
 142000      .142   397536.55 -248118.56 804.032391 -248922.59 645655.112 -396732.52 26.8010797
 142500     .1425  394325.634 -198201.33 775.298827 -198976.63 592526.963 -393550.33 25.8432942
 143000      .143  382796.694 -143799.05 744.273294 -144543.32 526595.743 -382052.42 24.8091098
 143500     .1435  364243.021 -86553.524 700.525212 -87254.049 450796.545  -363542.5 23.3508404
 144000      .144  340299.328 -28401.246 648.773008 -29050.019 368700.574 -339650.56 21.6257669
 144500     .1445  312290.342 28814.9787  610.07487 28204.9038 283475.364 -311680.27  20.335829
 145000      .145  279855.945 84679.2567 602.079179 84077.1775 195176.688 -279253.87  20.069306
 145500     .1455  242101.463 139346.096 621.909078 138724.187 102755.367 -241479.55 20.7303026
 146000      .146  198972.661 192518.713 652.646945 191866.066 6453.94863 -198320.01 21.7548982
 146500     .1465  151325.015 243353.499 679.439058  242674.06 -92028.484 -150645.58 22.6479686
 147000      .147  101075.755 290222.498 693.900924 289528.598 -189146.74 -100381.85 23.1300308
 147500     .1475  50341.2112 331402.026 703.693706 330698.333 -281060.82 -49637.517 23.4564569
 148000      .148  446.376329 365688.042 729.240565 364958.801 -365241.67 282.864236 24.3080188
 148500     .1485   -48842.21 393305.229 781.595557 392523.633 -442147.44 49623.8059 26.0531852
 149000      .149  -97907.701 414726.555 853.348413 413873.207 -512634.26 98761.0491 28.4449471
 149500     .1495  -146440.36 430087.768 927.053904 429160.714 -576528.13 147367.411 30.9017968
 150000       .15  -193172.42 438910.548 989.883829 437920.664 -632082.96   194162.3 32.9961276
 150500     .1505  -236265.42 440281.202 1036.41705 439244.785 -676546.62 237301.833  34.547235
 151000      .151  -273888.92 433327.487 1076.35233 432251.135 -707216.41 274965.275 35.8784109
 151500     .1515  -305373.01 418004.073 1127.60785 416876.466 -723377.08 306500.618 37.5869282
 152000      .152  -331404.73 395502.851 1195.26118  394307.59 -726907.58 332599.987 39.8420392
 152500     .1525  -352522.51 366968.127 1269.20311 365698.924 -719490.63 353791.711 42.3067702
 153000      .153  -368711.09 333227.543 1333.79339 331893.749 -701938.63 370044.884 44.4597795
 153500     .1535  -379034.33 294423.899 1378.86244 293045.037 -673458.23 380413.197 45.9620814
 154000      .154  -382352.56 250467.622 1403.03503 249064.587 -632820.19 383755.599 46.7678343
 154500     .1545  -377762.25 201382.834 1418.32055 199964.514 -579145.09 379180.574 47.2773516
 155000      .155  -365678.98    148137. 1440.17135 146696.829 -513815.98 367119.149 48.0057117
 155500     .1555  -347550.86 92577.8274 1469.74165 91108.0858 -440128.68 349020.597 48.9913883
 156000      .156  -324432.41 36240.4962 1495.78969 34744.7065 -360672.91   325928.2 49.8596562
 156500     .1565  -296842.46  -19759.66 1505.58294 -21265.243  -277082.8 298348.046 50.1860979
 157000      .157  -264475.35 -75037.108 1492.33964 -76529.447 -189438.25 265967.693 49.7446547
 157500     .1575   -226989.6 -129375.12 1459.25267 -130834.38  -97614.48 228448.856 48.6417557
 158000      .158  -184462.87  -182401.1 1420.36268 -183821.47   -2061.77 185883.235 47.3454227
 158500     .1585  -138230.23 -232842.24 1388.21026 -234230.45 94612.0082 139618.442 46.2736754
 159000      .159  -90223.976 -278971.27 1360.95585 -280332.22  188747.29 91584.9318 45.3651951
 159500     .1595  -41787.561 -319565.09 1327.11776 -320892.21 277777.534 43114.6788 44.2372587
 160000       .16  6376.31281 -353969.89 1277.23506 -355247.12 360346.201 -5099.0777 42.5745021
 160500     .1605  54262.8215 -382225.34 1208.21365 -383433.56 436488.166 -53054.608 40.2737883
 161000      .161  101876.095 -404524.14 1127.04747 -405651.19 506400.236 -100749.05  37.568249
 161500     .1615  148683.276 -420833.22 1048.60761 -421881.83 569516.495 -147634.67 34.9535871
 162000      .162  193102.654 -430330.35 982.052116 -431312.41 623433.009  -192120.6 32.7350705
 162500     .1625  233414.673 -432105.89 923.163121 -433029.06 665520.567 -232491.51  30.772104
 163000      .163  268610.713 -425822.91 860.943258 -426683.85 694433.619 -267749.77 28.6981086
 163500     .1635  298450.682 -411795.83 788.638907 -412584.47 710246.511 -297662.04 26.2879636
 164000      .164  323234.238 -390884.63 706.113579 -391590.75 714118.871 -322528.12 23.5371193
 164500     .1645  343257.592 -364034.72 622.607249 -364657.33 707292.311 -342634.98  20.753575
 165000      .165  358199.246 -331829.07 552.176723 -332381.25 690028.315 -357647.07 18.4058908
 165500     .1655  366937.416 -294162.75 500.053712 -294662.81 661100.169 -366437.36 16.6684571
 166000      .166  368578.246 -251066.19 459.589247 -251525.78 619644.433 -368118.66 15.3196416
 166500     .1665  362958.872 -203085.72  420.22086 -203505.94 566044.589 -362538.65  14.007362
 167000      .167   350713.03 -151372.56 376.741623  -151749.3 502085.592 -350336.29 12.5580541
 167500     .1675  332813.763 -97385.976  330.89376  -97716.87 430199.739 -332482.87  11.029792
 168000      .168  310136.892 -42517.399 292.619157 -42810.019 352654.292 -309844.27  9.7539719
 168500     .1685   282859.21 12385.5522  273.50187 12112.0503 270473.658 -282585.71   9.116729
 169000      .169  250567.896 67081.9901 274.547694 66807.4424 183485.906 -250293.35 9.15158982
 169500     .1695  213275.454 121115.089 286.809651 120828.279 92160.3653 -212988.64 9.56032171
  % % % % % %   Suspended simulation;  plot data space exhausted;  SPY SPACE is required.   LIMBUF =  340000.
  % % % % % %   Suspended simulation;  plot data space exhausted;  SPY SPACE is required.   LIMBUF =  340000.
  +++  Time-sharing disabled.   Send  user-keyed interrupt to silence alarm.
   Current values.  INDBUF  INDBEG  LIMBUF  MFLUSH  NUMDCD  KCARD1  KCARD2
                    339994      50  340000    1003      46       1      50
Plot timespan now in memory (in sec) = 1.27476007E-01   1.69969000E-01
   ++++  Begin plot-data copy from memory to disk.   MFLUSH, INDBUF, N4, Tbeg,  Tend = 1004  339994       1  -1.00000E+00
1.00000E+19
 170000       .17  171648.214  173633.76 300.288083 173333.472 -1985.5456 -171347.93 10.0096028
 170500     .1705  127025.383 223331.087 310.799775 223020.287 -96305.704 -126714.58 10.3599925
 171000      .171  80854.9977 268842.279 321.290408 268520.988 -187987.28 -80533.707 10.7096803
 171500     .1715  34303.5348 309058.426 341.369692 308717.056 -274754.89 -33962.165 11.3789897
 172000      .172  -12242.494 343560.836 379.271655 343181.564 -355803.33 12621.7659 12.6423885
 172500     .1725  -58821.911 372430.859 432.335536 371998.523 -431252.77 59254.2464 14.4111845
 173000      .173  -105005.36 395521.219  490.19324 395031.026 -500526.58 105495.558 16.3397747
 173500     .1735  -149833.54 412386.463 543.917453 411842.546   -562220. 150377.455 18.1305818
 174000      .174  -191902.36 422289.592  590.50854 421699.084 -614191.95 192492.864  19.683618
 174500     .1745  -229913.47 424608.821 633.949583 423974.871 -654522.29 230547.416 21.1316528
 175000      .175  -263051.87 419113.541 683.200692 418430.341 -682165.41 263735.069 22.7733564
 175500     .1755  -291312.91  406292.35  743.32593 405549.024 -697605.26 292056.239  24.777531
 176000      .176  -314954.75 386953.317 809.223084 386144.094 -701908.07 315763.975 26.9741028
 176500     .1765  -333796.39 361645.705 870.479251 360775.226 -695442.09 334666.868  29.015975
 177000      .177   -347228.3 330630.593 920.030457 329710.562 -677858.89 348148.331 30.6676819
 177500     .1775  -354423.79 293979.488  956.75511 293022.733 -648403.28 355380.548  31.891837
 178000      .178   -354803.3 251931.294  985.99299 250945.301 -606734.59 355789.293  32.866433
 178500     .1785  -348394.73 205146.514   1016.229 204130.285 -553541.24 349410.958 33.8743001
 179000      .179  -335959.05  154889.53 1050.15559 153839.375 -490848.58 337009.202 35.0051864
 179500     .1795   -318316.5 102493.134 1081.60712 101411.527 -420809.63 319398.106 36.0535706
 180000       .18  -295860.68 48951.5626 1101.53146 47850.0312 -344812.24 296962.208 36.7177155
 180500     .1805  -268594.08 -5092.8136 1105.43282 -6198.2465 -263501.27 269699.516 36.8477608
 181000      .181  -236445.15 -59159.422  1094.6256 -60254.048 -177285.73 237539.775 36.4875201
 181500     .1815  -199632.51 -112637.68 1075.95166 -113713.64 -86994.828 200708.463 35.8650554
 182000      .182  -158982.06 -164549.36 1057.40456 -165606.77 5567.30715 160039.462 35.2468185
 182500     .1825  -115857.27  -213520.9 1039.99554  -214560.9 97663.6391 116897.261 34.6665179
 183000      .183  -71442.689 -258364.04 1017.44572 -259381.49 186921.356 72460.1346 33.9148573
 183500     .1835  -26459.167 -298319.74 982.816462 -299302.55 271860.571  27441.983 32.7605487
 184000      .184  18772.9967 -333043.39 934.231318 -333977.62 351816.388 -17838.765 31.1410439
 184500     .1845  63957.3541 -362345.02  875.26903 -363220.28  426302.37 -63082.085 29.1756343
 185000      .185  108532.006 -385948.31 813.805938 -386762.11 494480.315  -107718.2 27.1268646
 185500     .1855  151422.544 -403275.04 756.838533 -404031.88 554697.589 -150665.71 25.2279511
 186000      .186  191275.558 -413557.68  703.88836 -414261.57 604833.237 -190571.67 23.4629453
 186500     .1865  227128.965 -416380.03 648.820028 -417028.85 643508.999 -226480.14 21.6273343
 187000      .187  258534.036 -411787.37 586.665985 -412374.04  670321.41 -257947.37 19.5555328
 187500     .1875  285436.449 -400219.98 517.525367  -400737.5 685656.427 -284918.92 17.2508456
 188000      .188  307789.204 -382217.82 446.375552  -382664.2 690007.024 -307342.83 14.8791851
 188500     .1885  325305.304 -358210.35 381.097911 -358591.45 683515.656 -324924.21 12.7032637
 189000      .189  337297.682 -328339.18 326.819931   -328666. 665636.864 -336970.86 10.8939977
 189500     .1895  343032.818 -292684.64 281.325961 -292965.97 635717.462 -342751.49 9.37753204
 190000       .19    342282.2 -251708.18 238.403087 -251946.59 593990.384  -342043.8 7.94676957
 190500     .1905  335327.142 -206268.36  194.36801 -206462.72 541595.497 -335132.77 6.47893368
 191000      .191  322763.166 -157491.11 150.348081 -157641.45 480254.273 -322612.82  5.0116027
 191500     .1915   305140.27  -106477.1 111.603255  -106588.7 411617.368 -305028.67 3.72010851
 192000      .192  282740.398 -54113.643 84.8791928 -54198.522 336854.041 -282655.52 2.82930643
 192500     .1925  255513.131 -959.58651 72.7127643 -1032.2993 256472.717 -255440.42 2.42375881
 193000      .193  223503.596 52444.9568 70.9747939  52373.982 171058.639 -223432.62 2.36582646
 193500     .1935   187247.45 105256.531 73.2330119 105183.298 81990.9185 -187174.22  2.4411004
 194000      .194  147699.164 156367.625 76.5021508 156291.123 -8668.4613 -147622.66 2.55007169
 194500     .1945  105966.257 204589.227 82.2598315 204506.968 -98622.971   -105884. 2.74199438
 195000      .195  62999.6685 248908.278 95.3062815 248812.971 -185908.61 -62904.362 3.17687605
 195500     .1955  19401.6885  288647.42 120.612267 288526.807 -269245.73 -19281.076 4.02040891
 196000      .196  -24537.671 323494.537 158.077083  323336.46 -348032.21 24695.7477  5.2692361
 196500     .1965  -68381.693 353143.501  202.02221 352941.478 -421525.19 68583.7156 6.73407366
 197000      .197   -111306.6 377084.075 246.136721 376837.938 -488390.68 111552.742 8.20455737
 197500     .1975  -152220.32 394668.812 288.093682 394380.718 -546889.13 152508.411 9.60312273
 198000      .198  -190065.56 405322.578   329.6529 404992.925 -595388.14  190395.21   10.98843
 198500     .1985  -224068.86 408745.745 375.091579 408370.653  -632814.6 224443.949 12.5030526
 199000      .199  -253882.51  405033.28 427.700369  404605.58 -658915.79  254310.21  14.256679
 199500     .1995  -279447.09 394606.871 485.435853 394121.435 -674053.96 279932.529 16.1811951
 200000       0.2  -300541.63 377843.941 542.011874 377301.929 -678385.57 301083.644 18.0670625
 200500     .2005  -316668.62 354957.175 592.027606 354365.147  -671625.8 317260.649 19.7342535
 201000      .201  -327202.93 326077.879 634.278075 325443.601 -653280.81 327837.206 21.1426025
 201500     .2015  -331690.51 291465.791 671.204253 290794.587  -623156.3 332361.711 22.3734751
 202000      .202  -330035.52  251656.35 706.956681 250949.394 -581691.87  330742.48 23.5652227
 202500     .2025    -322574. 207531.322 743.710409 206787.611 -530105.32 323317.713  24.790347
 203000      .203  -309844.91 160161.295 778.524053 159382.771 -470006.21 310623.435 25.9508018
 203500     .2035  -292187.03 110463.564 805.618511 109657.945 -402650.59 292992.647 26.8539504
 204000      .204  -269713.18 59150.6203 821.296873 58329.3234  -328863.8 270534.479 27.3765624
 204500     .2045  -242482.84 6832.94936 825.970238 6006.97912 -249315.79 243308.811 27.5323413
 205000      .205   -210765.1 -45787.106 823.125528 -46610.231   -164978. 211588.226 27.4375176
 205500     .2055  -175170.26 -97811.542 817.108759  -98628.65  -77358.72 175987.371 27.2369586
 206000      .206  -136649.69 -148123.06 809.475128 -148932.53 11473.3723 137459.161 26.9825043
 206500     .2065  -96199.913 -195605.45  797.18466 -196402.63 99405.5349 96997.0973  26.572822
 207000      .207   -54538.88 -239420.42 775.678659  -240196.1 184881.539 55314.5586 25.8559553
 207500     .2075  -12142.678 -279002.38 743.244543 -279745.62 266859.697 12885.9223 24.7748181
 208000      .208  30559.5879 -313928.42 701.926823 -314630.35 344488.008 -29857.661 23.3975608
 208500     .2085  72970.0493 -343745.02  656.13031 -344401.15  416715.07 -72313.919 21.8710103
 209000      .209  114234.941 -367890.64 610.216741 -368500.86 482125.582 -113624.72  20.340558
 209500     .2095  153309.955 -385712.04 565.147737 -386277.19 539021.998 -152744.81 18.8382579
 210000       .21  189285.949  -396711.5 517.976103 -397229.48 585997.451 -188767.97 17.2658701
 210500     .2105  221611.413 -400736.02 465.382713  -401201.4 622347.435 -221146.03 15.5127571
 211000      .211   250006.32 -397922.51  407.23169 -398329.74 647928.832 -249599.09 13.5743897
 211500     .2115  274248.106 -388539.23  346.60335 -388885.83 662787.333  -273901.5  11.553445
 212000      .212  293999.119   -372833. 288.135085 -373121.14  666832.12 -293710.98 9.60450284
  % % % % % %   Suspended simulation;  plot data space exhausted;  SPY SPACE is required.   LIMBUF =  340000.
  % % % % % %   Suspended simulation;  plot data space exhausted;  SPY SPACE is required.   LIMBUF =  340000.
  +++  Time-sharing disabled.   Send  user-keyed interrupt to silence alarm.
   Current values.  INDBUF  INDBEG  LIMBUF  MFLUSH  NUMDCD  KCARD1  KCARD2
                    339994      50  340000    1004      46       1      50
Plot timespan now in memory (in sec) = 1.69967994E-01   2.12461000E-01
   ++++  Begin plot-data copy from memory to disk.   MFLUSH, INDBUF, N4, Tbeg,  Tend = 1005  339994       1  -1.00000E+00
1.00000E+19
 212500     .2125  308753.123 -350967.57 235.529003  -351203.1 659720.695 -308517.59 7.85096676
 213000      .213  317950.376 -323074.52 188.748808 -323263.27 641024.894 -317761.63 6.29162693
 213500     .2135  321292.939 -289494.79 144.642056 -289639.44 610787.733  -321148.3 4.82140185
 214000      .214  318860.754 -250878.81 100.642346 -250979.45 569739.561 -318760.11 3.35474486
 214500     .2145  310982.399  -208091.3 57.3832335 -208148.68 519073.701 -310925.02 1.91277445
 215000      .215  298012.124 -162035.62 18.0902606 -162053.71 460047.743 -297994.03 .603008686
 215500     .2155  280192.571 -113524.65  -13.23711 -113511.42 393717.226 -280205.81   -.441237
 216000      .216  257630.044  -63236.17 -34.301441 -63201.868 320866.214 -257664.35 -1.1433814
 216500     .2165  230445.612 -11798.559 -46.550928 -11752.008 242244.171 -230492.16 -1.5516976
 217000      .217  199048.428 39993.7241 -53.660057 40047.3842 159054.704 -199102.09 -1.7886686
 217500     .2175  164158.815 91151.8935  -57.93059 91209.8241 73006.9213 -164216.75 -1.9310197
 218000      .218  126645.078 140613.097 -58.626678 140671.724 -13968.019  -126703.7 -1.9542226
 218500     .2185  87309.5997 187411.823  -53.02445 187464.848 -100102.22 -87362.624 -1.7674817
 219000      .219  46784.5162 230777.416 -38.294572  230815.71  -183992.9 -46822.811 -1.2764857
 219500     .2195  5538.74566 270151.323 -13.846739 270165.169 -264612.58 -5552.5924 -.46155797
 220000       .22  -35943.196 305064.146 17.4919653 305046.654 -341007.34 35960.6881 .583065509
 220500     .2205  -76946.136 334954.816 51.6347623 334903.181 -411900.95 76997.7711 1.72115874
 221000      .221  -116567.94  359188.23 86.4888058 359101.741 -475756.17  116654.43 2.88296019
 221500     .2215  -153900.51 377183.062 122.756238 377060.306 -531083.58 154023.269  4.0918746
 222000      .222  -188213.88 388556.987 162.594733 388394.392 -576770.86 188376.471 5.41982443
 222500     .2225  -219023.26 393185.465 207.743333 392977.722 -612208.73 219231.004 6.92477775
 223000      .223  -246043.35 391181.188 257.431918 390923.756 -637224.54  246300.78 8.58106394
 223500     .2235  -268988.11 382737.334 308.061847 382429.272 -651725.44  269296.17 10.2687282
 224000      .224  -287416.56 367984.293 355.744321 367628.549 -655400.86 287772.306  11.858144
 224500     .2245  -300815.21 347031.815 399.010422 346632.805 -647847.02 301214.218 13.3003474
 225000      .225  -308777.54 320091.314 438.885569 319652.428 -628868.85 309216.422  14.629519
 225500     .2255  -311143.12 287583.159 477.375179 287105.783 -598726.27 311620.491  15.912506
 226000      .226  -308022.76 250157.003 515.650691 249641.352 -558179.76 308538.411 17.1883564
 226500     .2265  -299710.71 208632.077 552.330976 208079.746 -508342.79 300263.043 18.4110325
 227000      .227  -286474.08 163821.438 583.923371 163237.514 -450295.52 287058.001 19.4641124
 227500     .2275  -268455.54 116430.083 607.501424 115822.581 -384885.62 269063.041 20.2500475
 228000      .228  -245774.87 67112.4321 622.743121  66489.689  -312887.3 246397.611  20.758104
 228500     .2285  -218692.16 16585.1682 631.434829 15953.7334 -235277.33   219323.6 21.0478276
 229000      .229  -187698.57 -34301.069  635.87558 -34936.945  -153397.5 188334.445 21.1958527
 229500     .2295  -153501.53 -84570.066 637.166432 -85207.233 -68931.462 154138.695 21.2388811
 230000       .23  -116901.04  -133208.8 633.960764 -133842.76 16307.7517 117535.005 21.1320255
 230500     .2305  -78587.584 -179337.98 623.513566 -179961.49 100750.393 79211.0972 20.7837855
 231000      .231  -39098.043 -222266.85 604.285562 -222871.14 183168.808 39702.3289 20.1428521
 231500     .2315  1071.18213 -261419.01 577.267263 -261996.28 262490.194 -493.91487 19.2422421
 232000      .232  41322.8906 -296226.03 545.068006  -296771.1 337548.921 -40777.823 18.1689335
 232500     .2325  80908.3653 -326079.78 510.320664  -326590.1 406988.145 -80398.045 17.0106888
 233000      .233  118971.805 -350355.46 474.124536 -350829.58 469327.264 -118497.68 15.8041512
 233500     .2335  154694.574 -368513.33 435.325169 -368948.66 523207.904 -154259.25  14.510839
 234000      .234  187465.747 -380239.69 392.002983 -380631.69 567705.438 -187073.74 13.0667661
 234500     .2345  216875.102 -385451.69 343.828986 -385795.52 602326.792 -216531.27 11.4609662
 235000      .235  242588.309 -384203.38 292.713656  -384496.1 626791.694  -242295.6 9.75712188
 235500     .2355  264226.124 -376583.06   241.6274 -376824.68 640809.181  -263984.5 8.05424666
 236000      .236  281340.118 -362678.59 193.077306 -362871.66 644018.705 -281147.04 6.43591019
 236500     .2365  293473.552 -342605.36 147.766357 -342753.12 636078.909 -293325.79 4.92554522
 237000      .237  300307.666 -316607.71 104.416523 -316712.13  616915.38 -300203.25 3.48055076
 237500     .2375   301782.21 -285156.25 61.5324212 -285217.78 586938.458 -301720.68 2.05108071
 238000      .238  298041.815 -248908.39 19.3793969 -248927.77 546950.204 -298022.44 .645979896
 238500     .2385   289300.22 -208598.69 -19.945475 -208578.74 497898.907 -289320.17 -.66484917
 239000      .239  275737.891 -164943.58 -53.830788 -164889.75 440681.472 -275791.72 -1.7943596
 239500     .2395  257494.155 -118617.12 -80.544871 -118536.57 376111.271  -257574.7  -2.684829
 240000       .24  234735.629 -70283.667 -100.29372 -70183.373 305019.296 -234835.92 -3.3431241
 240500     .2405  207790.742  -20694.15 -114.89088 -20579.259 228484.893 -207905.63 -3.8296959
 241000      .241  177214.304 29259.6063 -125.87226 29385.4785 147954.698 -177340.18 -4.1957418
 241500     .2415   143697.98 78613.1728 -132.97676 78746.1496 65084.8073 -143830.96 -4.4325588
 242000      .242  107931.577 126441.869 -134.52921 126576.398 -18510.292 -108066.11  -4.484307
 242500     .2425  70521.6082 171937.974 -128.78763 172066.762 -101416.37 -70650.396  -4.292921
 243000      .243  31998.1261 214419.012 -115.16932 214534.181 -182420.89 -32113.295 -3.8389772
 243500     .2435  -7110.1955  253282.66 -94.973001 253377.633 -260392.86 7015.22245 -3.1657667
 244000      .244  -46158.801 287914.251 -70.622324 287984.873 -334073.05 46088.1789 -2.3540775
 244500     .2445   -84370.86 317663.851  -43.80281 317707.654 -402034.71 84327.0572 -1.4600937
 245000      .245   -120945.8 341924.345 -14.436122 341938.781 -462870.14 120931.364 -.48120405
 245500     .2455  -155186.42 360229.932 18.6070527 360211.325 -515416.35 155205.028  .62023509
 246000      .246  -186552.62 372304.315  56.209448 372248.106 -558856.93 186608.828 1.87364827
 246500     .2465  -214635.36 378045.769 97.9711987 377947.798 -592681.13 214733.332 3.26570662
 247000      .247  -239070.94 377462.709 141.847236 377320.862 -616533.65 239212.787 4.72824119
 247500     .2475  -259440.78 370583.739 185.218555 370398.521 -630024.52 259625.995 6.17395182
 248000      .248   -275287.9 357453.764 226.602104 357227.162 -632741.67 275514.506 7.55340345
 248500     .2485  -286226.88 338207.667  266.18927 337941.477 -624434.55 286493.073 8.87297567
 249000      .249  -292045.01 313144.223 304.913346 312839.309 -605189.24 292349.928 10.1637782
 249500     .2495  -292722.89   282741.8 343.253596 282398.546 -575464.69 293066.147 11.4417865
 250000       .25  -288385.42 247619.463 380.400745 247239.062 -536004.88 288765.821 12.6800248
 250500     .2505  -279203.69 208454.798 414.243988 208040.554 -487658.49 279617.932 13.8081329
 251000      .251  -265312.04 165901.731 442.632492 165459.099 -431213.77  265754.67 14.7544164
 251500     .2515  -246843.88 120600.314 464.823467 120135.491 -367444.19 247308.699 15.4941156
 252000      .252  -224031.43 73242.2987 481.575791 72760.7229 -297273.73 224513.002 16.0525264
 252500     .2525  -197274.57 24620.7479 494.093072 24126.6548 -221895.32 197768.665 16.4697691
 253000      .253  -167129.91 -24379.447 502.960349 -24882.407 -142750.47 167632.874  16.765345
 253500     .2535  -134241.89 -72835.826 507.520289 -73343.346 -61406.061 134749.407  16.917343
 254000      .254  -99238.441  -119876.5 506.172111 -120382.67 20638.0574 99744.6129 16.8724037
 254500     .2545   -62669.98 -164743.01 497.703911 -165240.71 102073.029  63167.684 16.5901304
  % % % % % %   Suspended simulation;  plot data space exhausted;  SPY SPACE is required.   LIMBUF =  340000.
  % % % % % %   Suspended simulation;  plot data space exhausted;  SPY SPACE is required.   LIMBUF =  340000.
  +++  Time-sharing disabled.   Send  user-keyed interrupt to silence alarm.
   Current values.  INDBUF  INDBEG  LIMBUF  MFLUSH  NUMDCD  KCARD1  KCARD2
                    339994      50  340000    1005      46       1      50
Plot timespan now in memory (in sec) = 2.12459996E-01   2.54953000E-01
   ++++  Begin plot-data copy from memory to disk.   MFLUSH, INDBUF, N4, Tbeg,  Tend = 1006  339994       1  -1.00000E+00
1.00000E+19
 255000      .255  -25058.612 -206764.34 482.405268 -207246.75 181705.733  25541.017 16.0801756
 255500     .2555  13014.6357 -245294.52 461.787767 -245756.31 258309.157 -12552.848 15.3929256
 256000      .256  50869.4771 -279678.45 437.487837 -280115.93 330547.924 -50431.989 14.5829279
 256500     .2565  87758.9178 -309272.76  410.35618 -309683.12 397031.682 -87348.562 13.6785393
 257000      .257   122947.59 -333502.11 380.055696 -333882.16 456449.699 -122567.53 12.6685232
 257500     .2575  155808.977 -351937.22 345.618048 -352282.84 507746.201 -155463.36 11.5206016
 258000      .258  185856.864  -364327.1  306.74478 -364633.84 550183.963 -185550.12  10.224826
 258500     .2585   212682.14 -370552.57 264.553716 -370817.12 583234.711 -212417.59 8.81845721
 259000      .259  235874.354 -370561.12 221.018046 -370782.14 606435.471 -235653.34  7.3672682
 259500     .2595  254999.931 -364338.98 177.903724 -364516.89 619338.915 -254822.03 5.93012412
 260000       .26  269643.244 -351931.78 136.027853 -352067.81 621575.029 -269507.22 4.53426178
 260500     .2605  279481.884 -333492.95 95.0881578 -333588.04 612974.835  -279386.8 3.16960526
 261000      .261  284362.934 -309340.77 54.4152884 -309395.19 593703.706 -284308.52 1.81384295
 261500     .2615  284299.772 -279956.51  14.162397 -279970.67 564256.279 -284285.61 .472079899
 262000      .262  279394.343 -245919.36 -24.304819 -245895.05 525313.699 -279418.65 -.81016065
 262500     .2625  269764.368 -207839.11 -59.151832 -207779.96 477603.479 -269823.52 -1.9717277
 263000      .263  255531.792 -166332.34 -89.041566  -166243.3 421864.135 -255620.83 -2.9680522
 263500     .2635  236863.372 -122040.17 -113.69398 -121926.47 358903.538 -236977.07 -3.7897994
 264000      .264  214035.276 -75668.159 -133.82481 -75534.334 289703.435  -214169.1  -4.460827
 264500     .2645  187481.431 -28021.702 -150.26358 -27871.438 215503.133 -187631.69  -5.008786
 265000      .265  157758.785 20021.9821 -162.93612 20184.9182 137736.803 -157921.72 -5.4312039
 265500     .2655   125460.24 67587.0027 -170.79201 67757.7947 57873.2371 -125631.03  -5.693067
 266000      .266  91150.2074  113859.34 -172.63934 114031.979 -22709.132 -91322.847 -5.7546448
 266500     .2665  55361.8148 158100.718 -167.97234  158268.69  -102738.9 -55529.787 -5.5990778
 267000      .267  18636.2004 199627.534 -157.34285 199784.877 -180991.33 -18793.543 -5.2447617
 267500     .2675   -18423.15 237772.625 -142.08507  237914.71 -256195.77 18281.0647  -4.736169
 268000      .268  -55127.292  271863.88 -123.37377 271987.254 -326991.17 55003.9178  -4.112459
 268500     .2685  -90756.492 301263.443 -101.42317 301364.866 -392019.94 90655.0691 -3.3807724
 269000      .269  -124645.15 325434.372 -75.678484 325510.051 -450079.52 124569.471 -2.5226161
 269500     .2695  -156229.92 343982.592 -45.667197 344028.259 -500212.51 156184.249 -1.5222399
 270000       .27  -185039.28 356652.709 -11.668453 356664.377 -541691.99 185027.611 -.38894844
 270500     .2705   -210650.4 363295.599 25.0984159 363270.501   -573946. 210675.502 .836613862
 271000      .271  -232639.69  363824.82 62.9252368 363761.895 -596464.51 232702.613 2.09750789
 271500     .2715  -250576.23 358200.732 100.544563 358100.188 -608776.96 250676.775 3.35148544
 272000      .272  -264081.81 346468.098 137.685709 346330.412 -610549.91 264219.496 4.58952364
 272500     .2725  -272901.19 328805.722 174.676634 328631.045 -601706.91 273075.865 5.82255445
 273000      .273  -276926.27 305543.547 211.629894 305331.917 -582469.82 277137.899  7.0543298
 273500     .2735  -276168.12 277137.986 247.931639 276890.054  -553306.1 276416.047 8.26438798
 274000      .274  -270705.39 244126.295 282.220109 243844.075 -514831.68 270987.606 9.40733697
 274500     .2745  -260636.09 207077.746 312.960176 206764.786 -467713.83 260949.046 10.4320059
 275000      .275  -246080.13 166581.297 339.293255 166242.004 -412661.43 246419.426 11.3097752
 275500     .2755  -227234.44 123277.597 361.337933 122916.259 -350512.03 227595.773 12.0445978
 276000      .276  -204421.98 77890.9459 379.643109 77511.3028 -282312.93 204801.624 12.6547703
 276500     .2765  -178090.98 31225.4402 394.447768 30830.9924 -209316.42 178485.426 13.1482589
 277000      .277  -148770.97  -15873.28 405.318018 -16278.598 -132897.69 149176.284 13.5106006
 277500     .2775  -117014.71 -62569.554 411.270184 -62980.824 -54445.158 117425.982 13.7090061
 278000      .278  -83353.921 -108082.98 411.411871 -108494.39 24729.0565 83765.3329  13.713729
 278500     .2785   -48309.56 -151691.52 405.658219 -152097.18 103381.963 48715.2177 13.5219406
 279000      .279  -12440.226 -192700.29 394.789059 -193095.08 180260.067 12835.0155 13.1596353
 279500     .2795  23627.7083 -230419.44 379.811926 -230799.25 254047.148 -23247.896 12.6603975
 280000       .28  59218.7295 -264177.52 361.321486 -264538.84 323396.248 -58857.408 12.0440495
 280500     .2805  93659.1836  -293360.7 339.273336 -293699.97  387019.88  -93319.91 11.3091112
 281000      .281  126333.331 -317457.99 313.228236 -317771.22 443791.323  -126020.1 10.4409412
 281500     .2815  156715.276 -336091.04 283.009179 -336374.05 492806.318 -156432.27  9.4336393
 282000      .282  184346.989 -349000.33 249.250772 -349249.58  533347.32 -184097.74 8.30835908
 282500     .2825  208792.298 -356007.67  213.24702 -356220.92 564799.971 -208579.05 7.10823398
 283000      .283  229617.739 -356994.99 176.283305 -357171.28 586612.731 -229441.46 5.87611015
 283500     .2835  246417.628 -351916.19 139.115013 -352055.31 598333.819 -246278.51 4.63716711
 284000      .284  258861.034 -340827.05 101.870461 -340928.92  599688.08 -258759.16 3.39568204
 284500     .2845  266735.607 -323915.31  64.394083  -323979.7 590650.917 -266671.21 2.14646943
 285000      .285  269959.055 -301508.23 26.8796628 -301535.11 571467.281 -269932.18 .895988759
 285500     .2855  268542.001 -274039.87 -9.7584366 -274030.11 542581.871 -268551.76 -.32528122
 286000      .286   262540.27 -242005.94 -44.196842 -241961.74 504546.207 -262584.47 -1.4732281
 286500     .2865  252039.905 -205940.76 -75.346974 -205865.41 457980.667 -252115.25 -2.5115658
 287000      .287  237180.336 -166424.34 -102.74414 -166321.59 403604.675 -237283.08 -3.4248046
 287500     .2875  218190.557 -124101.41 -126.52161 -123974.89 342291.967 -218317.08  -4.217387
 288000      .288  195415.635 -79696.585 -146.99141 -79549.593  275112.22 -195562.63 -4.8997136
 288500     .2885  169306.233 -34002.903 -164.06587 -33838.837 203309.136  -169470.3 -5.4688624
 289000      .289  140368.705 12162.5057 -177.05897 12339.5647 128206.199 -140545.76 -5.9019656
 289500     .2895  109117.381  58004.208 -185.10208 58189.3101 51113.1727 -109302.48 -6.1700694
 290000       .29  76063.1655 102767.439  -187.7195 102955.158 -26704.273 -76250.885 -6.2573168
 290500     .2905  41733.8891 145730.584 -185.08184 145915.666  -103996.7 -41918.971 -6.1693948
 291000      .291  6700.85438 186189.877 -177.86781 186367.745 -179489.02 -6878.7222  -5.928927
 291500     .2915  -28409.123 223451.279 -166.79644 223618.076  -251860.4 28242.3266 -5.5598813
 292000      .292  -62939.362 256849.945 -152.12991 257002.075 -319789.31 62787.2319 -5.0709971
 292500     .2925   -96256.81 285793.385 -133.63249 285927.018  -382050.2 96123.1779 -4.4544162
 293000      .293  -127792.16 309796.377 -111.04074 309907.418 -437588.53 127681.116 -3.7013579
 293500     .2935  -157042.38 328486.737 -84.543674 328571.281 -485529.12 156957.839 -2.8181225
 294000      .294  -183548.13 341588.967  -54.90914 341643.876  -525137.1 183493.224 -1.8303047
 294500     .2945  -206870.14 348903.829 -23.252913 348927.081 -555773.97  206846.89 -.77509709
 295000      .295  -226583.94 350298.365 9.44401329 350288.921  -576882.3  226593.38 .314800443
 295500     .2955  -242309.77 345722.678 42.7274776 345679.951 -588032.45 242352.497 1.42424925
 296000      .296  -253758.56 335241.383 76.5724298 335164.811 -588999.94 253835.133 2.55241433
 296500     .2965  -260755.93 319049.897  110.89734 318938.999 -579805.83 260866.832 3.69657801
 297000      .297  -263230.31 297462.303 145.188842 297317.114 -560692.61 263375.498 4.83962806
  % % % % % %   Suspended simulation;  plot data space exhausted;  SPY SPACE is required.   LIMBUF =  340000.
  % % % % % %   Suspended simulation;  plot data space exhausted;  SPY SPACE is required.   LIMBUF =  340000.
  +++  Time-sharing disabled.   Send  user-keyed interrupt to silence alarm.
   Current values.  INDBUF  INDBEG  LIMBUF  MFLUSH  NUMDCD  KCARD1  KCARD2
                    339994      50  340000    1006      46       1      50
Plot timespan now in memory (in sec) = 2.54952013E-01   2.97445000E-01
   ++++  Begin plot-data copy from memory to disk.   MFLUSH, INDBUF, N4, Tbeg,  Tend = 1007  339994       1  -1.00000E+00
1.00000E+19
 297500     .2975  -261182.78  270882.73 178.483592 270704.246 -532065.51 261361.269 5.94945306
 298000      .298  -254660.84 239776.819 209.664164 239567.155 -494437.65   254870.5 6.98880545
 298500     .2985  -243753.56 204657.447  237.92037 204419.527 -448411.01 243991.485   7.930679
 299000      .299  -228617.94 166095.463 263.017535 165832.446  -394713.4 228880.959 8.76725118
 299500     .2995   -209510.6 124737.617 285.082013 124452.535 -334248.22 209795.684 9.50273377
 300000       0.3  -186792.85 81305.7062 304.129518 81001.5767 -268098.55 187096.976 10.1376506
 300500     .3005  -160904.17 36570.9086 319.791678 36251.1169 -197475.08 161223.962 10.6597226
 301000      .301  -132325.08 -8681.7667  331.38334 -9013.1501 -123643.32 132656.466 11.0461113
 301500     .3015  -101548.57 -53684.251  338.23355 -54022.484 -47864.324 101886.808 11.2744517
 302000      .302  -69076.025 -97698.052 340.093396 -98038.145 28622.0271 69416.1183 11.3364465
 302500     .3025  -35438.938 -140004.42 337.272573  -140341.7 104565.487 35776.2106 11.2424191
 303000      .303  -1218.0254 -179893.17 330.335641 -180223.51 178675.146 1548.36102  11.011188
 303500     .3035  32965.9118 -216671.21 319.668069 -216990.88 249637.121 -32646.244 10.6556023
 304000      .304  66485.9906 -249690.64 305.297407 -249995.93 316176.626 -66180.693 10.1765802
 304500     .3045  98746.5219 -278380.28 287.025848  -278667.3   377126.8 -98459.496 9.56752826
 305000      .305  129206.987 -302268.08 264.770903 -302532.85 431475.068 -128942.22 8.82569677
 305500     .3055   157379.79 -320982.73 238.898344 -321221.63  478362.52 -157140.89 7.96327813
 306000      .306  182808.038  -334236.6 210.233835 -334446.83 517044.639  -182597.8 7.00779449
 306500     .3065  205052.209 -341812.31 179.703958 -341992.01 546864.515  -204872.5 5.99013193
 307000      .307  223703.935 -343568.65 147.961511 -343716.61 567272.584 -223555.97 4.93205036
 307500     .3075  238417.438 -339460.73 115.294913 -339576.02 577878.165 -238302.14 3.84316378
 308000      .308  248937.907 -329558.64 81.8116631 -329640.45 578496.546  -248856.1 2.72705544
 308500     .3085  255112.972 -314054.06 47.7709939 -314101.83 569167.033  -255065.2 1.59236646
 309000      .309  256878.281 -293245.84 13.8330875 -293259.67 550124.116 -256864.45 .461102916
 309500     .3095  254229.816 -267512.37  -19.03396 -267493.33 521742.183 -254248.85 -.63446534
 310000       .31  247210.086 -237292.36 -49.930755 -237242.43  484502.45 -247260.02 -1.6643585
 310500     .3105  235919.148 -203084.39 -78.323683 -203006.06 439003.536 -235997.47 -2.6107894
 311000      .311  220536.782 -165456.31 -104.05254 -165352.26 385993.093 -220640.83 -3.4684179
 311500     .3115  201337.282  -125050.6 -127.10665 -124923.49 326387.878 -201464.39 -4.2368883
 312000      .312  178685.561 -82576.384 -147.31221 -82429.071 261261.944 -178832.87 -4.9104069
 312500     .3125  153010.267 -38783.037 -164.16631 -38618.871 191793.304 -153174.43 -5.4722102
 313000      .313  124771.163 5572.82445  -177.0072 5749.83165 119198.338 -124948.17 -5.9002401
 313500     .3135  94444.4771 49747.4429 -185.37405 49932.8169 44697.0342 -94629.851 -6.1791352
 314000      .314  62530.4273 93011.9472 -189.21534 93201.1625  -30481.52 -62719.643 -6.3071781
 314500     .3145  29566.8215 134647.579 -188.82137   134836.4 -105080.76 -29755.643 -6.2940455
 315000      .315  -3867.0303 173946.223 -184.57148 174130.794 -177813.25 3682.45884 -6.1523828
 315500     .3155  -37164.978 210223.796 -176.65225 210400.448 -247388.77 36988.3254 -5.8884082
 316000      .316  -69726.632 242848.058 -164.97066 243013.029 -312574.69 69561.6611 -5.4990219
 316500     .3165  -100988.18 271266.243 -149.37481 271415.618 -372254.42 100838.807 -4.9791602
 317000      .317  -130432.29 295016.518  -129.9719  295146.49 -425448.81 130302.316 -4.3323965
 317500     .3175  -157578.85 313722.872 -107.24812  313830.12 -471301.73 157471.605 -3.5749373
 318000      .318  -181973.64 327085.897 -81.939909 327167.837 -509059.54 181891.703 -2.7313303
 318500     .3185  -203187.64 334879.632 -54.768483 334934.401 -538067.27 203132.871 -1.8256161
 319000      .319  -220833.65 336960.563 -26.201696 336986.765 -557794.21 220807.443 -.87338988
 319500     .3195  -234594.94 333286.701 3.55738122 333283.144 -567881.64 234598.493 .118579374
 320000       .32  -244245.77 323931.281 34.3208577  323896.96 -568177.05 244280.091 1.14402859
 320500     .3205  -249649.94 309079.144 65.6521351 309013.492 -558729.08 249715.589  2.1884045
 321000      .321  -250744.07 289009.545 96.8237312 288912.721 -539753.61 250840.892 3.22745771
 321500     .3215   -247522.3 264078.011 126.987471 263951.023 -511600.31 247649.286 4.23291568
 322000      .322  -240032.51 234705.598 155.432516 234550.165 -474738.11  240187.94 5.18108387
 322500     .3225  -228388.14 201380.014 181.766054 201198.248 -429768.15 228569.906 6.05886846
 323000      .323  -212786.69  164663.34 205.853607 164457.486 -377450.03  212992.54 6.86178689
 323500     .3235  -193515.81 125191.413 227.556582 124963.856 -318707.22 193743.368 7.58521939
 324000      .324  -170938.85 83657.1851 246.525383 83410.6597 -254596.03 171185.371 8.21751275
 324500     .3245  -145469.99 40784.9588 262.218065 40522.7408 -186254.95  145732.21 8.74060215
 325000      .325  -117554.44 -2692.6477 274.090741 -2966.7385 -114861.79 117828.529 9.13635802
 325500     .3255  -87661.203 -46048.357 281.828995 -46330.186 -41612.846 87943.0324 9.39429982
 326000      .326  -56289.996 -88562.012 285.461236 -88847.474 32272.0164 56575.4573 9.51537454
 326500     .3265  -23980.482 -129518.32 285.236016 -129803.56 105537.839 24265.7176  9.5078672
 327000      .327   8692.6708 -168213.98  281.36126 -168495.34 176906.646 -8411.3095 9.37870867
 327500     .3275  41142.0481  -203977.9 273.853232 -204251.75 245119.945 -40868.195 9.12844107
 328000      .328  72794.5145 -236195.66 262.599889 -236458.26  308990.17 -72531.915 8.75332963
 328500     .3285  103109.932 -264327.75 247.554488  -264575.3 367437.683 -102862.38 8.25181626
 329000      .329  131586.034 -287916.78 228.927578 -288145.71 419502.812 -131357.11 7.63091926
 329500     .3295  157751.005 -306583.27 207.231754  -306790.5 464334.276 -157543.77 6.90772513
 330000       .33  181157.019 -320019.88 183.111012 -320202.99 501176.899 -180973.91 6.10370041
[...]

                   656115.197 -676497.67 -725215.64 .1141554E7 -.104086E7 -.118577E7 2437.41369
Times of maxima :     .018426    .713963    .003359    .004625     .00655     .00282    .713647
             Random switching times for simulation number  296  :
                                   1  5.5801796E-02    2  5.4258744E-02    3  5.4176209E-02    4  1.0357663E-02    5  6.9853327E-01
                                   6  6.9869586E-01    7  6.9958808E-01

                   657314.558 -714947.39 -725215.64 .1141554E7 -.104086E7 -.118577E7 2506.82909
Times of maxima :     .018325    .713992    .003359    .004625     .00655     .00282    .713643
             Random switching times for simulation number  297  :
                                   1  5.6055230E-02    2  5.4163897E-02    3  5.4929744E-02    4  9.5205641E-03    5  7.0046628E-01
                                   6  6.9931070E-01    7  6.9985771E-01

                   652437.576 -664319.75 -725215.64 .1141554E7 -.104086E7 -.118577E7  2544.5372
Times of maxima :     .018295    .714012    .003359    .004625     .00655     .00282    .014538
             Random switching times for simulation number  298  :
                                   1  5.4402657E-02    2  5.4726493E-02    3  5.5809066E-02    4  1.1302849E-02    5  6.9999931E-01
                                   6  6.9999918E-01    7  7.0135056E-01

                   652965.059 -675305.24 -725215.64 .1141554E7 -.104086E7 -.118577E7 2498.02749
Times of maxima :     .018464     .71407    .003359    .004625     .00655     .00282    .713912
             Random switching times for simulation number  299  :
                                   1  5.4359107E-02    2  5.5309833E-02    3  5.5354775E-02    4  9.7516764E-03    5  7.0067447E-01
                                   6  7.0174165E-01    7  7.0054964E-01

                   654477.044 -678742.76 -725215.64 .1141554E7 -.104086E7 -.118577E7 2447.33239
Times of maxima :     .018273    .713777    .003359    .004625     .00655     .00282     .71369
             Random switching times for simulation number  300  :
                                   1  5.6212631E-02    2  5.5400460E-02    3  5.4330646E-02    4  9.8967378E-03    5  7.0009595E-01
                                   6  7.0031249E-01    7  6.9985806E-01

                   655816.222 -671973.33 -725215.64 .1141554E7 -.104086E7 -.118577E7 2482.17444
Times of maxima :     .018284    .713734    .003359    .004625     .00655     .00282    .713964

 MAIN20 dumps OVER12 dice seed  SEEDSV =   3.0444871000000000E+09

Statistical output of  node  voltage   0.4287E+06 |              X0003AX0003BX0003C

1 ) -------------------------------------------------------------------------------------------------------------------------------
Statistical distribution of peak voltage at node  "X0003A".   The base voltage for per unit printout is  V-base = 4.28660705E+05
  Interval             voltage         voltage  in     Frequency    Cumulative               Per cent
    number         in per unit      physical units     (density)     frequency     .GE. current value
        29           1.4500000      6.21558022E+05             0             0          100.000000
        30           1.5000000      6.42991058E+05             1             1           99.666667
        31           1.5500000      6.64424093E+05           271           272            9.333333
        32           1.6000000      6.85857128E+05             6           278            7.333333
        33           1.6500000      7.07290163E+05             3           281            6.333333
        34           1.7000000      7.28723199E+05            10           291            3.000000
        35           1.7500000      7.50156234E+05             9           300             .000000
Summary of preceding table follows:       Grouped data     Ungrouped data
                                 Mean = 1.53783333E+00     1.53960008E+00
                             Variance = 1.95013935E-03     1.94144201E-03
                   Standard deviation = 4.41603822E-02     4.40617977E-02

2 ) -------------------------------------------------------------------------------------------------------------------------------
Statistical distribution of peak voltage at node  "X0003B".   The base voltage for per unit printout is  V-base = 4.28660705E+05
  Interval             voltage         voltage  in     Frequency    Cumulative               Per cent
    number         in per unit      physical units     (density)     frequency     .GE. current value
        29           1.4500000      6.21558022E+05             0             0          100.000000
        30           1.5000000      6.42991058E+05             2             2           99.333333
        31           1.5500000      6.64424093E+05            67            69           77.000000
        32           1.6000000      6.85857128E+05           128           197           34.333333
        33           1.6500000      7.07290163E+05            74           271            9.666667
        34           1.7000000      7.28723199E+05            22           293            2.333333
        35           1.7500000      7.50156234E+05             2           295            1.666667
        36           1.8000000      7.71589269E+05             0           295            1.666667
        37           1.8500000      7.93022304E+05             0           295            1.666667
        38           1.9000000      8.14455340E+05             0           295            1.666667
        39           1.9500000      8.35888375E+05             0           295            1.666667
        40           2.0000000      8.57321410E+05             0           295            1.666667
        41           2.0500000      8.78754445E+05             1           296            1.333333
        42           2.1000000      9.00187481E+05             4           300             .000000
Summary of preceding table follows:       Grouped data     Ungrouped data
                                 Mean = 1.59200000E+00     1.59247885E+00
                             Variance = 5.86387960E-03     5.75923510E-03
                   Standard deviation = 7.65759727E-02     7.58896244E-02

3 ) -------------------------------------------------------------------------------------------------------------------------------
  SUMMARY   SUMMARY   SUMMARY   SUMMARY   SUMMARY   SUMMARY   SUMMARY   SUMMARY   SUMMARY   SUMMARY   SUMMARY   SUMMARY   SUMMARY
3 ) -------------------------------------------------------------------------------------------------------------------------------
The following is a distribution of peak overvoltages among all output nodes of the last data card that have the same base voltage.
This distribution is for the maximum of the peaks at all output nodes with  V-base = 4.28660705E+05
  Interval             voltage         voltage  in     Frequency    Cumulative               Per cent
    number         in per unit      physical units     (density)     frequency     .GE. current value
        33           1.6500000      7.07290163E+05             0             0          100.000000
        34           1.7000000      7.28723199E+05           284           284            5.333333
        35           1.7500000      7.50156234E+05            11           295            1.666667
        36           1.8000000      7.71589269E+05             0           295            1.666667
        37           1.8500000      7.93022304E+05             0           295            1.666667
        38           1.9000000      8.14455340E+05             0           295            1.666667
        39           1.9500000      8.35888375E+05             0           295            1.666667
        40           2.0000000      8.57321410E+05             0           295            1.666667
        41           2.0500000      8.78754445E+05             1           296            1.333333
        42           2.1000000      9.00187481E+05             4           300             .000000
Summary of preceding table follows:       Grouped data     Ungrouped data
                                 Mean = 1.68333333E+00     1.69921339E+00
                             Variance = 2.57246377E-03     2.36916224E-03
                   Standard deviation = 5.07194614E-02     4.86740407E-02

Statistical output of branch voltage   0.4287E+06 |-1            X0003BX0003CX0003AX0003BX0003CX0003A

4 ) -------------------------------------------------------------------------------------------------------------------------------
Statistical distribution of peak voltage  for branch  "X0003A"  to  "X0003B".   Base voltage  for per unit output = 4.28660705E+05
  Interval             voltage         voltage  in     Frequency    Cumulative               Per cent
    number         in per unit      physical units     (density)     frequency     .GE. current value
        48           2.4000000      1.02878569E+06             0             0          100.000000
        49           2.4500000      1.05021873E+06           291           291            3.000000
        50           2.5000000      1.07165176E+06             0           291            3.000000
        51           2.5500000      1.09308480E+06             0           291            3.000000
        52           2.6000000      1.11451783E+06             2           293            2.333333
        53           2.6500000      1.13595087E+06             3           296            1.333333
        54           2.7000000      1.15738390E+06             3           299             .333333
        55           2.7500000      1.17881694E+06             1           300             .000000
Summary of preceding table follows:       Grouped data     Ungrouped data
                                 Mean = 2.43150000E+00     2.43476034E+00
                             Variance = 1.43754181E-03     1.47553226E-03
                   Standard deviation = 3.79149285E-02     3.84126575E-02

5 ) -------------------------------------------------------------------------------------------------------------------------------
  SUMMARY   SUMMARY   SUMMARY   SUMMARY   SUMMARY   SUMMARY   SUMMARY   SUMMARY   SUMMARY   SUMMARY   SUMMARY   SUMMARY   SUMMARY
5 ) -------------------------------------------------------------------------------------------------------------------------------
A distribution of peak values among all output branches of the last data card that have the same base value follows.  This
statistical distribution is for the maximum of the peaks at all of these output branches having base  voltage  = 4.28660705E+05
  Interval             voltage         voltage  in     Frequency    Cumulative               Per cent
    number         in per unit      physical units     (density)     frequency     .GE. current value
        55           2.7500000      1.17881694E+06             0             0          100.000000
        56           2.8000000      1.20024997E+06           300           300             .000000
Summary of preceding table follows:       Grouped data     Ungrouped data
                                 Mean = 2.77500000E+00     2.76622394E+00
                             Variance = 1.52089415E-15     9.85849925E-14
                   Standard deviation = 3.89986429E-08     3.13982472E-07

Blank card ends statistical tabulation requests.  |BLANK STATISTICS

                                      Sample curve symbols : "A", "B", and "C"
                                      Theoretical curve symbol : "*"
                                      Common curve symbol : "X"

        Switch  "X0001B"  to  "X0002B"            Switch  "X0001A"  to  "X0002A"            Switch  "X0001C"  to  "X0002C"
1.32420000E+00   switchings per column          1.32420000E+00   switchings per column     1.32420000E+00   switchings per column
              Columns                                     Columns                                     Columns
          5   10   15   20   25   30                5   10   15   20   25   30                5   10   15   20   25   30
     +----+----+----+----+----+----+           +----+----+----+----+----+----+           +----+----+----+----+----+----+
    X                                         X                                         X
    X                                         X                                         X
    X                                         X                                         X
    *A                                        X                                         X
    |*A                                       B*                                        |*C
    |A*                                       | X                                       | X
    |   X                                     | B *                                     |   *  C
    |       X                                 |       X                                 |     C *
    |      A    *                             |           *B                            |       C   *
    |                 * A                     |                 *    B                  |                 *  C
    |                       *     A           |                       X                 |                       *    C
    |                      A    *             |                           *   B         |                    C      *
    |  5.5000E-02                 *     A     |  5.5000E-02              B  *           |  5.5000E-02                 *     C
    |                           *      A      |                         B *             |                         C *
    |                  A    *                 |                       * B               |                       *     C
    |               A *                       |                B*                       |            C    *
    |         A *                             |          B*                             |        C  *
    |       * A                               |       X                                 |       *  C
    |  A*                                     |   X                                     | C *
    | *A                                      | X                                       | X
    |X                                        |X                                        |*C
    X                                         *B                                        X
    X                                         X                                         X
    X                                         X                                         *C
    X                                         X                                         X
   Time (scale = 3.33333333E-04  Sec/line)   Time (scale = 3.33333333E-04  Sec/line)   Time  (scale = 3.33333333E-04  Sec/line)

        Switch  "X0003C"  to  "XX0009"            Switch  "X0001B"  to  "X0002B"            Switch  "X0001A"  to  "X0002A"
1.32420000E+00   switchings per column          1.32420000E+00   switchings per column     1.32420000E+00   switchings per column
              Columns                                     Columns                                     Columns
          5   10   15   20   25   30                5   10   15   20   25   30                5   10   15   20   25   30
     +----+----+----+----+----+----+           +----+----+----+----+----+----+           +----+----+----+----+----+----+
    X                                         X                                         X
    X                                         X                                         X
    X                                         X                                         X
    *A                                        X                                         * C
    |X                                        |X                                        |*C
    | *A                                      | X                                       | X
    |  A*                                     |  B*                                     |   X
    |      A*                                 |    B  *                                 |     C *
    |         A *                             |           *  B                          |          C*
    |                 * A                     |                B*                       |                 X
    |                       *     A           |                       *    B            |                       X
    |                           *    A        |                           *B            |                           * C
    |  1.0000E-02                 *A          |  7.0000E-01                 *   B       |  7.0000E-01                C*
    |                           *   A         |                           *  B          |                           *  C
    |                A      *                 |                   B   *                 |                    C  *
    |                 * A                     |            B    *                       |                 X
    |           X                             |         B *                             |           * C
    |     A *                                 |     B *                                 |       X
    A   *                                     |   *  B                                  |   *C
    A *                                       | X                                       C *
    A*                                        |*B                                       |*C
    *A                                        *B                                        X
    X                                         X                                         X
    X                                         *B                                        X
    X                                         X                                         X
   Time (scale = 3.33333333E-04  Sec/line)   Time (scale = 3.33333333E-04  Sec/line)   Time  (scale = 3.33333333E-04  Sec/line)

   Switch  "X0001C"  to  "X0002C"
     1.32420000E+00   switchings per column
              Columns
          5   10   15   20   25   30
     +----+----+----+----+----+----+
    X
    X
    *A
    X
    |X
    |A*
    | A *
    |       X
    |           *    A
    |          A      *
    |                       *    A
    |                         A *
    |  7.0000E-01                A*
    |                          A*
    |                       X
    |                 *  A
    |           *       A
    |    A  *
    |   X
    A *
    A*
    *A
    X
    *A
    X
   Time (scale = 3.33333333E-04  Sec/line)
 .... Questionable Kolmogorov-Smirnov test result = 4.79983461E-01
 .... Questionable Kolmogorov-Smirnov test result = 8.61125218E-01
 .... Questionable Kolmogorov-Smirnov test result = 6.22920778E-01
 .... Questionable Kolmogorov-Smirnov test result = 8.70941508E-02
 .... Questionable Kolmogorov-Smirnov test result = 7.08509700E-01
 .... Questionable Kolmogorov-Smirnov test result = 9.61921384E-01
 .... Questionable Kolmogorov-Smirnov test result = 7.92096056E-01

Actual List Sizes for the preceding solution follow.       11-Nov-18  11.00.00
   Size  1-10:    27    26    38     3   138    13    42  5310     0     0
   Size 11-20:     0     7 -9999 -9999 -9999     0     0     0    23  2972
   Size 21-30:    36   180 14782     0 -9999     9 -9999 -9999 -9999     0
Seconds for overlays  1-5  :     0.000     0.000     0.000  -- (CP: Wait; Real)
Seconds for overlays  6-11 :     0.000     0.000     0.000
Seconds for overlays 12-15 :     0.000     0.000     0.000
Seconds for time-step loop :     0.000     0.000     0.000
Seconds after DELTAT-loop  :     0.000     0.000     0.000
                               ---------------------------
                   Totals  :     0.000     0.000     0.000

