   ---   55   cards of disk file read into card cache cells  1   onward.
 <===> Done with  "/"-card sorting by data class.    Remember that the source file appears different from interpreted input data.
Alternative Transients Program (ATP),  F77 GNU Linux or DOS.  All rights reserved by Can/Am user group of Portland, Oregon, USA.
 Date (dd-mth-yy) and time of day (hh.mm.ss) = 11-Nov-18  11.00.00    Name of disk plot file, if any, is
Consult the 860-page ATP Rule Book of the Can/Am EMTP User Group in Portland,  Oregon, USA.  Source code date is
Total size of LABCOM tables = 16446853 INTEGER words.  31 VARDIM  List Sizes follow:  6002  10K  192K  900  420K  1200  15K
  120K  2250  3800  720  2K  72800  510  800K  800  90  254  800K  100K  3K  15K  192K  120  45K  260K  600  210K  1100  19  200K
--------------------------------------------------+--------------------------------------------------------------------------------
Descriptive interpretation of input data cards.   |  Input data card images are shown below, all 80 columns, character by character
                                                  0         1         2         3         4         5         6         7         8
                                                  012345678901234567890123456789012345678901234567890123456789012345678901234567890
--------------------------------------------------+--------------------------------------------------------------------------------
Comment card.   KOMPAR > 0.                       |C data:Caso0_ReEnergizacao_OTIMIZADA_SemControle.atp
Marker card preceding new EMTP data case.         |BEGIN NEW DATA CASE
Comment card.   KOMPAR > 0.                       |C $DUMMY, XYZ000
Misc. data.     1.000E-06   1.000E+00   0.000E+00 |   1.E-6      1.
Misc. data.  500  1  0  0  1  0  0  1  300  0     |     500       1       0       0       1       0       0       1     300
Statistics data.      1    1    0    0    1    0  |       1       1       0       0       1      -1                               0
Series R-L-C.   5.000E+00  7.500E-02  0.000E+00   |  X0001AX0007A                5.   75.                                         0
Series R-L-C.   5.000E+00  7.500E-02  0.000E+00   |  X0001BX0007B                5.   75.                                         0
Series R-L-C.   5.000E+00  7.500E-02  0.000E+00   |  X0001CX0007C                5.   75.                                         0
Series R-L-C.   2.000E+02  0.000E+00  0.000E+00   |  X0007AX0001A              200.                                               0
Series R-L-C.   2.000E+02  0.000E+00  0.000E+00   |  X0007BX0001B              200.                                               0
Series R-L-C.   2.000E+02  0.000E+00  0.000E+00   |  X0007CX0001C              200.                                               0
Series R-L-C.   1.321E+00  1.401E+00  0.000E+00   |  X0003BXX0008            1.32071401.3                                         0
Series R-L-C.   1.321E+00  1.401E+00  0.000E+00   |  X0003AXX0008            1.32071401.3                                         0
Series R-L-C.   1.321E+00  1.401E+00  0.000E+00   |  X0003CXX0008            1.32071401.3                                         0
Series R-L-C.   3.900E-01  4.138E-01  0.000E+00   |  XX0008                     .39 413.8                                         0
Series R-L-C.   3.000E+01  0.000E+00  0.000E+00   |  XX0009                     30.                                               0
Series R-L-C.   7.000E+02  0.000E+00  0.000E+00   |  X0002AX0010A              700.                                               0
Series R-L-C.   7.000E+02  0.000E+00  0.000E+00   |  X0002BX0010B              700.                                               0
Series R-L-C.   7.000E+02  0.000E+00  0.000E+00   |  X0002CX0010C              700.                                               0
Dynamic $INCLUDE uses fixed RAM cache to delay.   |$INSERT, C:\SimulacaoATP\2\EXT1.pch
J. Marti line, mode  1   parameters begin.        |-1X0010AX0005C                2.  0.00              -2 3
J. Marti line, mode  2   parameters begin.        |-2X0010BX0005A                2.  0.00              -2 3
J. Marti line, mode  3   parameters begin.        |-3X0010CX0005B                2.  0.00              -2 3
TR(1,1 )...  0.671-0.707-0.324                    |  0.67102882 -0.70710678 -0.32400803
TI(1,1 )...  0.000 0.000 0.003                    |  0.00000000  0.00000000  0.00341127
TR(2,1 )...  0.315 0.000 0.889                    |  0.31480489  0.00000000  0.88876566
TI(2,1 )... -0.018 0.000 0.010                    | -0.01839933  0.00000000  0.01048452
TR(3,1 )...  0.671 0.707-0.324                    |  0.67102882  0.70710678 -0.32400803
TI(3,1 )...  0.000 0.000 0.003                    |  0.00000000  0.00000000  0.00341127
Dynamic $INCLUDE uses fixed RAM cache to delay.   |$INSERT, C:\SimulacaoATP\2\OTIM2.pch
J. Marti line, mode  1   parameters begin.        |-1X0004AX0006C                2.  0.00              -2 3
J. Marti line, mode  2   parameters begin.        |-2X0004BX0006A                2.  0.00              -2 3
J. Marti line, mode  3   parameters begin.        |-3X0004CX0006B                2.  0.00              -2 3
TR(1,1 )...  0.671-0.707-0.324                    |  0.67102882 -0.70710678 -0.32400803
TI(1,1 )...  0.000 0.000 0.003                    |  0.00000000  0.00000000  0.00341127
TR(2,1 )...  0.315 0.000 0.889                    |  0.31480489  0.00000000  0.88876566
TI(2,1 )... -0.018 0.000 0.010                    | -0.01839933  0.00000000  0.01048452
TR(3,1 )...  0.671 0.707-0.324                    |  0.67102882  0.70710678 -0.32400803
TI(3,1 )...  0.000 0.000 0.003                    |  0.00000000  0.00000000  0.00341127
Dynamic $INCLUDE uses fixed RAM cache to delay.   |$INSERT, C:\SimulacaoATP\2\OTIM3.pch
J. Marti line, mode  1   parameters begin.        |-1X0005AX0004C                2.  0.00              -2 3
J. Marti line, mode  2   parameters begin.        |-2X0005BX0004A                2.  0.00              -2 3
J. Marti line, mode  3   parameters begin.        |-3X0005CX0004B                2.  0.00              -2 3
TR(1,1 )...  0.671-0.707-0.324                    |  0.67102882 -0.70710678 -0.32400803
TI(1,1 )...  0.000 0.000 0.003                    |  0.00000000  0.00000000  0.00341127
TR(2,1 )...  0.315 0.000 0.889                    |  0.31480489  0.00000000  0.88876566
TI(2,1 )... -0.018 0.000 0.010                    | -0.01839933  0.00000000  0.01048452
TR(3,1 )...  0.671 0.707-0.324                    |  0.67102882  0.70710678 -0.32400803
TI(3,1 )...  0.000 0.000 0.003                    |  0.00000000  0.00000000  0.00341127
Dynamic $INCLUDE uses fixed RAM cache to delay.   |$INSERT, C:\SimulacaoATP\2\EXT4.pch
J. Marti line, mode  1   parameters begin.        |-1X0006AX0003A                2.  0.00              -2 3
J. Marti line, mode  2   parameters begin.        |-2X0006BX0003B                2.  0.00              -2 3
J. Marti line, mode  3   parameters begin.        |-3X0006CX0003C                2.  0.00              -2 3
TR(1,1 )...  0.671-0.707-0.324                    |  0.67102882 -0.70710678 -0.32400803
TI(1,1 )...  0.000 0.000 0.003                    |  0.00000000  0.00000000  0.00341127
TR(2,1 )...  0.315 0.000 0.889                    |  0.31480489  0.00000000  0.88876566
TI(2,1 )... -0.018 0.000 0.010                    | -0.01839933  0.00000000  0.01048452
TR(3,1 )...  0.671 0.707-0.324                    |  0.67102882  0.70710678 -0.32400803
TI(3,1 )...  0.000 0.000 0.003                    |  0.00000000  0.00000000  0.00341127
Blank card ending branches.  IBR, NTOT = 26  27   |BLANK BRANCH
Switch.   5.50E-02  1.00E-03  0.00E+00  3.33E+03  |  X0001BX0002B      .055      .001               3333.STATISTICS               0
Switch.   5.50E-02  1.00E-03  0.00E+00  3.33E+03  |  X0001AX0002A      .055      .001               3333.STATISTICS               0
Switch.   5.50E-02  1.00E-03  0.00E+00  3.33E+03  |  X0001CX0002C      .055      .001               3333.STATISTICS               0
Switch.   1.00E-02  1.00E-03  0.00E+00  0.00E+00  |  X0003CXX0009       .01      .001                    STATISTICS               1
Switch.   7.00E-01  1.00E-03  0.00E+00  0.00E+00  |  X0001BX0002B        .7      .001                    STATISTICS               0
Switch.   7.00E-01  1.00E-03  0.00E+00  0.00E+00  |  X0001AX0002A        .7      .001                    STATISTICS               0
Switch.   7.00E-01  1.00E-03  0.00E+00  0.00E+00  |  X0001CX0002C        .7      .001                    STATISTICS               0
Switch.   0.00E+00  6.98E-01  0.00E+00  0.00E+00  |  X0002AX0010A                .698                                             0
Switch.   0.00E+00  6.98E-01  0.00E+00  0.00E+00  |  X0002BX0010B                .698                                             0
Switch.   0.00E+00  6.98E-01  0.00E+00  0.00E+00  |  X0002CX0010C                .698                                             0
Switch.   7.10E-01  0.00E+00  0.00E+00  0.00E+00  |  X0002AX0010A       .71                                                       0
Switch.   7.10E-01  0.00E+00  0.00E+00  0.00E+00  |  X0002BX0010B       .71                                                       0
Switch.   7.10E-01  0.00E+00  0.00E+00  0.00E+00  |  X0002CX0010C       .71                                                       0
Blank card ending switches.   KSWTCH = 13.        |BLANK SWITCH
Source.   4.29E+05  6.00E+01  0.00E+00 -1.00E+00  |14X0007A  428660.705       60.                                     -1.      100.
Source.   4.29E+05  6.00E+01 -1.20E+02 -1.00E+00  |14X0007B  428660.705       60.     -120.                           -1.      100.
Source.   4.29E+05  6.00E+01 -2.40E+02 -1.00E+00  |14X0007C  428660.705       60.     -240.                           -1.      100.
Blank card ends electric sources.  KCONST = 3     |BLANK SOURCE

     Total network loss  P-loss  by summing injections =   2.595413345523E+08

Card of names for time-step loop output.          |  X0003AX0003BX0003C
Output voltage differences for pairs of A6 names  |-5X0003BX0003CX0003AX0003BX0003CX0003A
Blank card ending requests for output variables.  |BLANK OUTPUT

Column headings for the  7   EMTP output variables follow.  These are divided among the 5 possible classes as follows ....
  First  6     output variables are electric-network voltage differences (upper voltage minus lower voltage);
  Next   1     output variables are branch currents (flowing from the upper node to the lower node);
   Step      Time      X0003A     X0003B     X0003C     X0003B     X0003A     X0003C     X0003C
                                                        X0003C     X0003B     X0003A     XX0009
 ***      Phasor I(0) =  4.9202065E+01                     Switch  "X0001B"  to  "X0002B"  closed in the steady-state.
 ***      Phasor I(0) =  4.0508944E+02                     Switch  "X0001A"  to  "X0002A"  closed in the steady-state.
 ***      Phasor I(0) = -4.5075358E+02                     Switch  "X0001C"  to  "X0002C"  closed in the steady-state.
 ***                    Switch  "X0002A"  to  "X0010A"  closed  after  0.00000000E+00  sec.
 ***                    Switch  "X0002B"  to  "X0010B"  closed  after  0.00000000E+00  sec.
 ***                    Switch  "X0002C"  to  "X0010C"  closed  after  0.00000000E+00  sec.
      0       0.0  150257.834 -262624.43 109820.176 -372444.61 412882.266 -40437.658        0.0
    500     .5E-3  187385.069 -252674.94 63993.2002 -316668.14 440060.006 -123391.87        0.0
   1000     .1E-2  218725.749 -234177.52 15392.4413 -249569.96 452903.271 -203333.31        0.0
   1500     .0015  241424.602 -207620.53 -33650.787 -173969.75 449045.136 -275075.39        0.0
   2000      .002  547107.935 -118022.79 -494562.45 376539.665 665130.721 -.104167E7        0.0
   2500     .0025  555248.092 36175.1261 -617696.23 653871.356 519072.966 -.117294E7        0.0
   3000      .003  498058.506 170607.789 -700570.63 871178.415 327450.717 -.119863E7        0.0
   3500     .0035  405359.904 283453.476 -724351.96 .1007805E7 121906.428 -.112971E7        0.0
   4000      .004  294983.801 401493.654 -685273.16 .1086767E7 -106509.85 -980256.97        0.0
   4500     .0045  171985.766 506741.184 -630534.62 .1137276E7 -334755.42 -802520.38        0.0
   5000      .005  24940.8516 581251.977  -553358.7 .1134611E7 -556311.13 -578299.55        0.0
   5500     .0055  -225456.31  611000.76 -345155.64 956156.395 -836457.07 -119699.33        0.0
   6000      .006  -435182.74 578215.959 -115159.76 693375.719  -.10134E7 320022.979        0.0
   6500     .0065  -557785.69 517558.295  81973.536 435584.759 -.107534E7  639759.23        0.0
   7000      .007  -623721.67 437820.451 237939.766 199880.684 -.106154E7 861661.433        0.0
   7500     .0075  -649832.72  346175.41 339683.825 6491.58564 -996008.13 989516.544        0.0
   8000      .008  -641868.48 238293.784 405588.347 -167294.56 -880162.26 .1047457E7        0.0
   8500     .0085  -604897.45  118255.71 449995.508  -331739.8 -723153.16 .1054893E7        0.0
   9000      .009  -510047.38 3815.77474  443885.81 -440070.04 -513863.16 953933.195        0.0
   9500     .0095  -373145.65 -86915.037 389206.707 -476121.74 -286230.61 762352.354        0.0
  10000       .01  -246873.84 -151824.48 327597.013 -479421.49 -95049.365 574470.855        0.0
 ***                                                             Close switch  "X0003C"  to  "XX0009"  after  1.00010000E-02  sec.
  10500     .0105  -225092.35 -279670.56 28427.0231 -308097.58 54578.2049 253519.377 947.567437
  11000      .011  -134436.68 -314224.86  26486.761 -340711.62 179788.172 160923.444 882.892032
  11500     .0115  -66747.211 -349036.43  26774.104 -375810.53 282289.215 93521.3151 892.470135
  12000      .012  -20959.116 -383648.02 29937.1546 -413585.18 362688.906 50896.2701 997.905152
  12500     .0125  12399.6001 -400072.38 32816.1411 -432888.53 412471.985  20416.541 1093.87137
  13000      .013  31970.6503  -417572.1 36114.9792 -453687.08 449542.748 4144.32888 1203.83264
  13500     .0135  6320.04543 -446369.68 40324.3043 -486693.98 452689.723 34004.2589 1344.14348
  14000      .014  -40058.078 -542038.09 53361.8688 -595399.96 501980.012 93419.9468 1778.72896
  14500     .0145  48089.9963 -517959.79 63717.0181 -581676.81  566049.79 15627.0218  2123.9006
  15000      .015  145834.756 -471333.85 66607.9722 -537941.82 617168.605 -79226.784 2220.26574
  15500     .0155  233671.888 -423838.67 61005.4034 -484844.08  657510.56 -172666.48 2033.51345
  16000      .016  326471.484 -366433.15 51582.2583 -418015.41 692904.633 -274889.23 1719.40861
  16500     .0165   425325.82 -288694.33 40456.4832 -329150.81  714020.15 -384869.34 1348.54944
  17000      .017   524611.15 -186362.83 27469.7748 -213832.61 710973.982 -497141.38 915.659159
  17500     .0175  607864.735 -61732.871 13636.3924 -75369.263 669597.605 -594228.34 454.546413
  18000      .018  651487.628 78033.8515  4076.5883 73957.2632 573453.776 -647411.04 135.886277
  18500     .0185  659741.534 222256.375 -597.68167 222854.057 437485.158 -660339.22 -19.922722
  19000      .019  627676.742  352067.11 -6850.6023 358917.713 275609.631 -634527.34 -228.35341
  19500     .0195  558256.652  465107.58 -15021.103 480128.683 93149.0721 -573277.76 -500.70344
  20000       .02  452580.412 555261.487 -24147.409 579408.896 -102681.08 -476727.82 -804.91362
  20500     .0205  318911.241 617566.502 -33242.843 650809.345 -298655.26 -352154.08 -1108.0948
  21000      .021  168117.499 648525.663 -41868.002 690393.665 -480408.16  -209985.5 -1395.6001
  21500     .0215  8708.07969   640786.7 -49548.424 690335.125 -632078.62 -58256.504 -1651.6141
  22000      .022  -150586.63 592932.144 -54564.338 647496.483 -743518.77 96022.2899 -1818.8113
  22500     .0225  -290433.89 522249.814 -56274.483 578524.296 -812683.71 234159.411 -1875.8161
  23000      .023  -400299.12 441460.025 -55080.274 496540.299 -841759.14 345218.843 -1836.0091
  23500     .0235  -479739.95 352744.244 -52015.853 404760.097  -832484.2 427724.101 -1733.8618
  24000      .024  -530574.65 257655.258  -47636.91 305292.168 -788229.91 482937.738  -1587.897
  24500     .0245  -554676.49 160129.612 -42066.739 202196.351  -714806.1 512609.747 -1402.2246
  25000      .025  -554502.15  65996.868 -35493.828 101490.696 -620499.02 519008.325 -1183.1276
  25500     .0255  -535238.79 -20886.381 -28132.803 7246.42154 -514352.41 507105.992 -937.76009
  26000      .026  -502993.67 -100163.66 -19600.681 -80562.979 -402830.01 483392.993 -653.35604
  26500     .0265  -461925.18 -173163.98 -9456.9488 -163707.04  -288761.2 452468.231 -315.23163
  27000      .027    -415164. -241856.52 1897.61761 -243754.14 -173307.48 417061.618 63.2539203
  27500     .0275  -364097.55 -306660.23 13607.7031 -320267.94 -57437.313 377705.249 453.590104
  28000      .028   -308844.1 -366953.86 24888.4825 -391842.34 58109.7604 333732.579 829.616084
  28500     .0285  -248614.98 -421606.24 35151.9919 -456758.23 172991.261 283766.972 1171.73306
  29000      .029  -181814.06 -469049.94 43903.7133 -512953.65 287235.881 225717.771 1463.45711
  29500     .0295  -107688.44 -507602.17 50726.0235 -558328.19 399913.731 158414.463 1690.86745
  30000       .03   -26747.58   -534905. 55464.6436 -590369.64 508157.419 82212.2237 1848.82145
  30500     .0305  60584.0156  -546797.5 58190.7665 -604988.26 607381.514 -2393.2491 1939.69222
  31000      .031  153562.506  -538443.9 59026.9129 -597470.81 692006.402 -94535.593 1967.56376
  31500     .0315  249618.463 -506588.69 58024.3951 -564613.08 756207.148 -191594.07  1934.1465
  32000      .032  344140.023 -450491.17 55182.1665 -505673.33 794631.188 -288957.86 1839.40555
  32500     .0325  431371.171  -371489.4 50534.9638 -422024.37 802860.574 -380836.21 1684.49879
  33000      .033  505549.327 -272394.19 44169.3095  -316563.5 777943.512 -461380.02 1472.31032
  33500     .0335  561494.453 -157517.55  36224.626 -193742.17    719012. -525269.83 1207.48753
  34000      .034  594885.817 -32753.076 26970.7301 -59723.806 627638.894 -567915.09 899.024336
  34500     .0345  602639.896 94859.6034 16827.3635 78032.2399 507780.293 -585812.53 560.912117
  35000      .035  583322.608 217902.018 6257.88587 211644.132  365420.59 -577064.72 208.596196
  35500     .0355  537485.373 329517.433 -4329.4305 333846.864  207967.94  -541814.8 -144.31435
  36000      .036  467643.349 424100.497 -14592.015 438692.513  43542.852 -482235.36 -486.40052
  36500     .0365  377913.578 497599.578 -24224.262 521823.839   -119686. -402137.84 -807.47539
  37000      .037  273489.163 547614.156 -32949.442 580563.598 -274124.99 -306438.61 -1098.3147
  37500     .0375  159996.197 573305.008 -40528.578 613833.587 -413308.81 -200524.77 -1350.9526
  38000      .038  42989.5212 575238.193 -46747.415 621985.608 -532248.67 -89736.936 -1558.2472
  38500     .0385   -72266.79 555280.593 -51395.455 606676.048 -627547.38 20871.3352 -1713.1818
  39000      .039  -180978.71 516362.317 -54269.314 570631.631 -697341.03 126709.394 -1808.9771
  39500     .0395  -279121.88  461960.06 -55203.383 517163.443 -741081.94 223918.496 -1840.1128
  40000       .04  -363706.73 395507.377 -54104.908 449612.285 -759214.11 309601.824 -1803.4969
  40500     .0405  -432800.33 320019.176 -50972.378 370991.554 -752819.51 381827.954 -1699.0793
  41000      .041  -485310.16 237996.591 -45900.638  283897.23 -723306.75 439409.522 -1530.0213
  41500     .0415  -520735.57 151476.031 -39077.824 190553.855  -672211.6 481657.743 -1302.5941
  42000      .042   -539012.3 62118.0568 -30767.777 92885.8334 -601130.36 508244.522 -1025.5926
  % % % % % %   Suspended simulation;  plot data space exhausted;  SPY SPACE is required.   LIMBUF =  340000.
  % % % % % %   Suspended simulation;  plot data space exhausted;  SPY SPACE is required.   LIMBUF =  340000.
  +++  Time-sharing disabled.   Send  user-keyed interrupt to silence alarm.
   Current values.  INDBUF  INDBEG  LIMBUF  MFLUSH  NUMDCD  KCARD1  KCARD2
                    339994      50  340000    1000      46       1      50
Plot timespan now in memory (in sec) = 0.00000000E+00   4.24930000E-02
   ++++  Begin plot-data copy from memory to disk.   MFLUSH, INDBUF, N4, Tbeg,  Tend = 1001  339994       1  -1.00000E+00
1.00000E+19
  42500     .0425  -540412.05 -28662.569 -21283.688 -7378.8801 -511749.48 519128.361 -709.45628
  43000      .043   -525440.2 -119496.37 -10969.647 -108526.72 -405943.84 514470.554 -365.65491
  43500     .0435  -494735.22 -208800.97 -194.00641 -208606.97 -285934.25 494541.214 -6.4668802
  44000      .044    -449027. -294552.05 10656.3264 -305208.37 -154474.95 459683.328 355.210879
  44500     .0445  -389193.26 -374181.04 21188.1354 -395369.17 -15012.227   410381.4 706.271179
  45000      .045  -316386.97 -444637.89 31017.1108   -475655. 128250.922  347404.08 1033.90369
  45500     .0455  -232181.87 -502603.04  39781.322 -542384.36 270421.168 271963.195 1326.04407
  46000      .046  -138682.92 -544789.55   47154.99 -591944.54 406106.632 185837.909   1571.833
  46500     .0465  -38561.169 -568264.02 52864.9436 -621128.97 529702.855 91426.1131 1762.16479
  47000      .047  64990.1109 -570750.82 56706.6387 -627457.46 635740.934 -8283.4722 1890.22129
  47500     .0475  168353.393 -550914.83 58554.1508 -609468.98 719268.221 -109799.24 1951.80503
  48000      .048  267624.719  -508600.5 58361.8336 -566962.34 776225.224 -209262.89 1945.39445
  48500     .0485  358799.585 -444971.03 56159.9669 -501130.99 803770.612 -302639.62  1871.9989
  49000      .049  438007.723  -362497.1 52047.4602 -414544.56 800504.819 -385960.26 1734.91534
  49500     .0495  501766.509 -264794.64 46183.3915 -310978.04 766561.154 -455583.12 1539.44638
  50000       .05  547209.867  -156353.5 38779.0681 -195132.56 703563.364  -508430.8  1292.6356
  50500     .0505  572264.884 -42205.536 30091.6428 -72297.179  614470.42 -542173.24 1003.05476
  51000      .051  575769.492 72433.0029 20418.2537 52014.7492 503336.489 -555351.24 680.608456
  51500     .0515  557533.202 182518.688 10088.7089 172429.979 375014.514 -547444.49 336.290297
  52000      .052  518339.277 283505.124 -543.97428 284049.099 234834.152 -518883.25 -18.132476
  52500     .0525  459885.071  371595.55 -11114.452 382710.002 88289.5212 -470999.52 -370.48173
  53000      .053  384664.939 443893.842 -21256.769 465150.612 -59228.903 -405921.71 -708.55897
  53500     .0535  295809.547 498446.132 -30616.899 529063.031 -202636.59 -326426.45 -1020.5633
  54000      .054  196901.118 534188.932 -38865.693 573054.625 -337287.81 -235766.81 -1295.5231
  54500     .0545  91785.3173 550834.614  -45711.08 596545.694  -459049.3  -137496.4 -1523.7027
  55000      .055  -15603.958 548726.835 -50908.443 599635.278 -564330.79 -35304.485 -1696.9481
  55500     .0555  -121398.74 528691.798 -54268.975 582960.773 -650090.54 67129.7656 -1808.9658
  56000      .056  -221928.09  491905.13 -55666.424 547571.554 -713833.22 166261.664 -1855.5475
  56500     .0565  -313825.37 439792.001 -55042.395 494834.396 -753617.38  258782.98 -1834.7465
 ***                                                             Open  switch  "X0001B"  to  "X0002B"  after  5.69100000E-02  sec.
  57000      .057  -394110.81 373974.197 -52409.927 426384.124   -768085. 341700.881 -1746.9976
  57500     .0575  -460250.67 296266.786 -47854.801 344121.588 -756517.45 412395.866   -1595.16
  58000      .058  -510199.11 208712.338 -41534.041 250246.379 -718911.45 468665.073  -1384.468
  58500     .0585  -542430.05 113630.535 -33671.191 147301.726 -656060.59 508758.862  -1122.373
  59000      .059   -564486.7  38927.544 -25695.813 64623.3565 -603414.24 538790.884 -856.52709
 ***                                                             Open  switch  "X0001A"  to  "X0002A"  after  5.94020000E-02  sec.
  59500     .0595  -558817.71 -20805.586 -15866.848 -4938.7384 -538012.12 542950.858 -528.89493
  60000       .06  -532825.72 -80957.473 -5215.8878 -75741.585 -451868.24 527609.828 -173.86293
 ***                                                             Open  switch  "X0001C"  to  "X0002C"  after  6.01170000E-02  sec.
  60500     .0605  -489701.02  -143978.2 5633.41031 -149611.61 -345722.82  495334.43 187.780344
  61000      .061  -430558.49 -208433.73 16298.1439 -224731.87 -222124.76 446856.633 543.271465
  61500     .0615   -386285.3 -269485.32 27927.5178 -297412.84 -116799.98 414212.818 930.917259
  62000      .062  -324093.26  -320262.6 35419.0374 -355681.63  -3830.665 359512.298 1180.63458
  62500     .0625  -261083.18 -346632.88 34481.2086 -381114.09 85549.7029 295564.388 1149.37362
  63000      .063  -204252.85 -383871.32 28533.6999 -412405.02 179618.468  232786.55 951.123328
  63500     .0635  -130979.48 -414984.12 22261.2727  -437245.4 284004.638 153240.757 742.042424
  64000      .064  -45548.651 -438394.84 15505.5061 -453900.34 392846.187 61054.1574 516.850205
  64500     .0645  43689.5537 -457872.51 8154.44362 -466026.96 501562.066  -35535.11 271.814787
  65000      .065  114563.871 -464600.21 926.304061 -465526.52 579164.082 -113637.57  30.876802
  65500     .0655  180779.011 -470648.14 -5895.6484 -464752.49 651427.151 -186674.66 -196.52161
  66000      .066  203289.652 -489294.26  -10116.13 -479178.13 692583.914 -213405.78 -337.20432
  66500     .0665  241030.718 -495547.74 -10338.388 -485209.36 736578.463 -251369.11 -344.61293
  67000      .067  295676.374 -484321.84 -9137.0301 -475184.81 779998.213  -304813.4 -304.56767
  67500     .0675  354584.873 -462176.43 -6816.4913 -455359.94 816761.304 -361401.36 -227.21638
  68000      .068  403576.763 -433512.16 -3208.0456 -430304.12 837088.927 -406784.81 -106.93485
  68500     .0685  437705.329 -390097.68 1509.02373 -391606.71 827803.012 -436196.31 50.3007912
  69000      .069  459840.299 -339877.92 6768.98206  -346646.9 799718.218 -453071.32 225.632735
  69500     .0695  465502.494 -284579.16 12261.9385  -296841.1 750081.657 -453240.56 408.731284
  70000       .07  483883.159 -220663.38 14635.2715 -235298.65 704546.536 -469247.89 487.842383
  70500     .0705  492542.699 -162534.61 14273.7518 -176808.36 655077.307 -478268.95 475.791726
  71000      .071  496799.374  -103421.8 13128.2103 -116550.01  600221.17 -483671.16  437.60701
  71500     .0715  491199.388 -35075.358 11711.8863 -46787.245 526274.746  -479487.5  390.39621
  72000      .072  475080.743 40941.7384 9510.48656 31431.2518 434139.004 -465570.26 317.016219
  72500     .0725  441466.475 117070.967 6635.50765 110435.459 324395.509 -434830.97 221.183588
  73000      .073  400896.686 188508.482 3430.32093 185078.162 212388.204 -397466.37 114.344031
  73500     .0735  350987.197  241011.73 330.994864 240680.735 109975.467  -350656.2 11.0331621
  74000      .074   295350.47 281924.528 -1320.0586 283244.586  13425.942 -296670.53 -44.001953
  74500     .0745  244258.215 321542.345 -1890.9428 323433.288 -77284.131 -246149.16 -63.031428
  75000      .075  186687.877 367121.748 -2024.8756 369146.623 -180433.87 -188712.75 -67.495855
  75500     .0755  122879.433 408406.549 -1491.3157 409897.865 -285527.12 -124370.75 -49.710524
  76000      .076  49217.0694   447408.7 -73.223108 447481.923 -398191.63 -49290.293 -2.4407703
  76500     .0765  -19367.344 476447.625 1893.53174 474554.093 -495814.97 21260.8756 63.1177247
  77000      .077  -85681.944 487773.603 4483.09631 483290.507 -573455.55 90165.0403 149.436544
  77500     .0775  -141784.18 491208.434 6620.58801 484587.846 -632992.61 148404.763 220.686267
  78000      .078  -194333.46 484507.937 7627.72437 476880.213 -678841.39 201961.181 254.257479
  78500     .0785  -251758.84 476925.139   7981.739   468943.4 -728683.98 259740.578 266.057967
  79000      .079  -304867.85 464359.553 8189.73356  456169.82  -769227.4 313057.583 272.991119
  79500     .0795  -355264.31 452042.825 7986.18554 444056.639 -807307.14 363250.497 266.206185
  80000       .08   -394087.5  427179.69 7203.48114 419976.209 -821267.19 401290.981 240.116038
  80500     .0805  -422122.96 388445.339 6158.39446 382286.945  -810568.3 428281.351 205.279815
  81000      .081  -441580.66  338099.38 4876.98151 333222.398 -779680.04  446457.64  162.56605
  81500     .0815  -458764.36 277927.568 3859.42685 274068.141 -736691.93 462623.788 128.647562
  82000      .082  -473623.05 220618.429 3209.39665 217409.032 -694241.48 476832.443 106.979888
  82500     .0825    -479174. 164281.986 2650.93161 161631.054 -643455.99 481824.937 88.3643871
  83000      .083  -478282.63 109764.179 2189.74601 107574.432 -588046.81 480472.379 72.9915336
  83500     .0835  -464465.01  47882.206 2154.68357 45727.5224 -512347.21 466619.691 71.8227857
  84000      .084  -437326.59 -18324.792 2607.08995 -20931.882  -419001.8 439933.684 86.9029984
  84500     .0845  -402692.58 -88262.059 3500.78833 -91762.848 -314430.52  406193.37 116.692944
  % % % % % %   Suspended simulation;  plot data space exhausted;  SPY SPACE is required.   LIMBUF =  340000.
  % % % % % %   Suspended simulation;  plot data space exhausted;  SPY SPACE is required.   LIMBUF =  340000.
  +++  Time-sharing disabled.   Send  user-keyed interrupt to silence alarm.
   Current values.  INDBUF  INDBEG  LIMBUF  MFLUSH  NUMDCD  KCARD1  KCARD2
                    339994      50  340000    1001      46       1      50
Plot timespan now in memory (in sec) = 4.24919985E-02   8.49850000E-02
   ++++  Begin plot-data copy from memory to disk.   MFLUSH, INDBUF, N4, Tbeg,  Tend = 1002  339994       1  -1.00000E+00
1.00000E+19
  85000      .085  -363999.63 -154910.91 4549.19676 -159460.11 -209088.72  368548.83 151.639892
  85500     .0855  -323607.29 -213947.72  5228.5601 -219176.28 -109659.57 328835.848 174.285337
  86000      .086   -280289.7 -266640.87 5489.28966 -272130.16  -13648.83 285778.988 182.976322
  86500     .0865  -231703.35 -312836.34 5615.28091 -318451.62 81132.9915 237318.626  187.17603
  87000      .087  -172281.95 -356546.59  5673.6072 -362220.19 184264.636 177955.558  189.12024
  87500     .0875    -105380. -396329.94 5538.02098 -401867.96 290949.939 110918.025 184.600699
  88000      .088  -37194.089 -432421.51 5298.97373 -437720.49 395227.426  42493.063 176.632458
  88500     .0885  26454.3639 -458637.15 4858.89876 -463496.05 485091.514 -21595.465 161.963292
  89000      .089  84022.3252 -476522.91 4307.16314 -480830.07 560545.235 -79715.162 143.572105
  89500     .0895  136489.515 -483847.86 3739.48709 -487587.35 620337.377 -132750.03  124.64957
  90000       .09  190017.427 -482565.45 3156.02521 -485721.48  672582.88  -186861.4  105.20084
  90500     .0905  246274.297 -475933.34 2576.29561 -478509.63 722207.633   -243698. 85.8765204
  91000      .091  300582.694 -463629.27 2197.71903 -465826.99 764211.967 -298384.98 73.2573009
  91500     .0915   349489.79 -444702.95 2146.93601 -446849.88 794192.737 -347342.85 71.5645336
  92000      .092   386345.66 -414858.03  2302.3772 -417160.41 801203.691 -384043.28 76.7459066
  92500     .0925  413626.559 -377279.35 2589.87201 -379869.22 790905.911 -411036.69  86.329067
  93000      .093  431155.523 -330803.92 2787.68529  -333591.6  761959.44 -428367.84 92.9228429
  93500     .0935  445091.588 -280734.19 2817.17074 -283551.36 725825.773 -442274.42 93.9056913
  94000      .094  456061.418 -229095.44 2828.66449 -231924.11 685156.859 -453232.75 94.2888165
  94500     .0945  461594.845 -174428.94 2945.29941 -177374.23  636023.78 -458649.55 98.1766471
  95000      .095  459153.618 -116001.17 3079.15747 -119080.33 575154.793 -456074.46 102.638582
  95500     .0955  443052.491 -52065.411 3142.13445 -55207.545 495117.902 -439910.36 104.737815
  96000      .096   417546.78 13248.7186 3089.12777 10159.5908 404298.062 -414457.65 102.970926
  96500     .0965  382614.832 79053.2192  2900.7241 76152.4951 303561.613 -379714.11 96.6908033
  97000      .097  344869.976 140009.438 2649.68136 137359.757 204860.538 -342220.29 88.3227119
  97500     .0975  305460.502  196002.68 2424.56729 193578.112 109457.823 -303035.94 80.8189098
  98000      .098  262703.249 248389.687 2244.25929 246145.427 14313.5619 -260458.99 74.8086431
  98500     .0985  213773.374 298023.244 2121.88257 295901.361  -84249.87 -211651.49 70.7294191
  99000      .099  156646.602 345751.168  2106.5042 343644.664 -189104.57  -154540.1 70.2168067
  99500     .0995  95501.3061 388428.821 2155.76706 386273.054 -292927.51 -93345.539 71.8589021
 100000       0.1  32403.1171 424480.771 2248.85669 422231.915 -392077.65  -30154.26 74.9618896
 100500     .1005  -27059.326 449866.629  2357.4922 447509.136 -476925.95 29416.8179 78.5830732
 101000      .101  -82720.124 465477.669 2470.80651 463006.863 -548197.79   85190.93 82.3602169
 101500     .1015  -136225.63 472873.953 2618.00964 470255.944 -609099.59 138843.644 87.2669881
 102000      .102  -189945.17 474839.599 2812.64174 472026.957 -664784.77 192757.814 93.7547248
 102500     .1025  -242899.37 471839.195 3014.45899 468824.736 -714738.57 245913.833 100.481966
 103000      .103  -292887.12  462050.39 3151.05116 458899.339 -754937.51 296038.175 105.035039
 103500     .1035  -336537.31 443628.076  3219.0518 440409.024 -780165.38  339756.36 107.301727
 104000      .104  -370710.48 414172.899 3237.64973 410935.249 -784883.38 373948.134 107.921658
 104500     .1045  -396500.01 375861.398 3247.05631 372614.342 -772361.41 399747.065  108.23521
 105000      .105  -415596.65 331126.587  3273.0882 327853.499 -746723.24 418869.737  109.10294
 105500     .1055  -430704.97 284091.164 3274.02463  280817.14 -714796.13 433978.992 109.134154
 106000      .106  -440083.88 234417.595 3229.20404 231188.391 -674501.47 443313.081 107.640135
 106500     .1065  -443148.49 181884.282 3160.55813 178723.724 -625032.77  446309.05 105.351938
 107000      .107  -436323.19 124839.985 3098.19639 121741.789 -561163.18 439421.391 103.273213
 107500     .1075  -418808.38 62613.1137 3073.99788 59539.1159 -481421.49 421882.376 102.466596
 108000      .108  -393002.45 -1885.4734 3097.34793 -4982.8213 -391116.98 396099.798 103.244931
 108500     .1085  -361378.59 -65953.736 3142.00499 -69095.741 -295424.85 364520.595   104.7335
 109000      .109  -327200.23 -125723.14 3157.72188 -128880.86 -201477.09 330357.952 105.257396
 109500     .1095  -288656.93 -181919.56  3144.0095 -185063.57 -106737.36 291800.935 104.800317
 110000       .11  -245683.19 -233978.85 3106.96333 -237085.82 -11704.341 248790.157 103.565444
 110500     .1105  -195706.29 -283855.69  3047.1755 -286902.87 88149.4008 198753.467 101.572517
 111000      .111  -139741.04 -331401.57 2994.79793 -334396.37 191660.533 142735.835 99.8265976
 111500     .1115  -81149.338 -374135.51 2961.08333 -377096.59 292986.172 84110.4213 98.7027776
 112000      .112  -22995.822 -409741.11  2923.5778 -412664.69 386745.287 25919.3994 97.4525934
 112500     .1125  32028.3955 -435754.08 2849.39407 -438603.48 467782.477 -29179.001 94.9798024
 113000      .113  85563.9293 -453380.44 2723.13238 -456103.58 538944.372 -82840.797 90.7710793
 113500     .1135  137841.761 -462878.57 2547.94174 -465426.51 600720.331 -135293.82 84.9313913
 114000      .114  190493.817 -466715.02 2362.67737  -469077.7 657208.835 -188131.14 78.7559124
 114500     .1145  241899.886 -464565.79 2220.03349 -466785.83 706465.681 -239679.85 74.0011162
 115000      .115  288830.419 -454993.16 2134.28383 -457127.45 743823.582 -286696.14 71.1427942
 115500     .1155  328415.996  -436440.5 2071.79208  -438512.3   764856.5  -326344.2 69.0597361
 116000      .116  359550.843 -408510.77 1996.79772 -410507.57 768061.614 -357554.04 66.5599239
 116500     .1165  383774.373 -373048.35   1886.971 -374935.32 756822.722  -381887.4 62.8990333
 117000      .117  402351.429 -331607.88 1757.38362 -333365.26 733959.308 -400594.05 58.5794539
 117500     .1175  416797.727 -286752.73 1649.47968 -288402.21 703550.454 -415148.25 54.9826559
 118000      .118  425680.229  -238318.2 1590.16372 -239908.36 663998.425 -424090.06 53.0054572
 118500     .1185  426684.588 -185907.45 1579.43302 -187486.88 612592.039 -425105.16 52.6477672
 119000      .119  417752.446 -128701.02 1579.89661 -130280.91 546453.463 -416172.55 52.6632204
 119500     .1195  399742.493 -67995.722 1564.25003 -69559.972 467738.215 -398178.24 52.1416677
 120000       .12  374450.499  -5827.178 1517.41407  -7344.592 380277.677 -372933.09 50.5804691
 120500     .1205  344387.058 55495.4489 1452.97009 54042.4788 288891.609 -342934.09 48.4323364
 121000      .121  311119.468 113846.618 1401.77598 112444.842 197272.851 -309717.69  46.725866
 121500     .1215  273581.053 169472.807 1388.21336 168084.594 104108.246 -272192.84 46.2737785
 122000      .122  230579.499 222556.977 1418.11954 221138.858 8022.52212 -229161.38 47.2706512
 122500     .1225  181103.413 273729.203 1461.36423 272267.839  -92625.79 -179642.05 48.7121411
 123000      .123  127454.454 321122.944 1495.18896 319627.755 -193668.49 -125959.26  49.839632
 123500     .1235  71660.6095 363160.234 1509.20628 361651.028 -291499.62 -70151.403  50.306876
 124000      .124  16730.9145 397709.889 1514.66894  396195.22 -380978.97 -15216.246 50.4889648
 124500     .1245  -36101.244 423778.425 1539.96685 422238.458 -459879.67 37641.2107 51.3322284
 125000      .125  -87745.065 442337.011  1605.1461 440731.865 -530082.08 89350.2111 53.5048702
 125500     .1255  -138852.97 454219.001 1701.36866 452517.633 -593071.97  140554.34 56.7122887
 126000      .126  -189777.95 460306.057 1796.61522 458509.442 -650084.01 191574.569  59.887174
 126500     .1265  -237954.99 459181.371 1871.02471 457310.346 -697136.36 239826.012 62.3674902
 127000      .127  -281556.11 450141.102 1921.59178  448219.51 -731697.21 283477.698 64.0530593
  % % % % % %   Suspended simulation;  plot data space exhausted;  SPY SPACE is required.   LIMBUF =  340000.
  % % % % % %   Suspended simulation;  plot data space exhausted;  SPY SPACE is required.   LIMBUF =  340000.
  +++  Time-sharing disabled.   Send  user-keyed interrupt to silence alarm.
   Current values.  INDBUF  INDBEG  LIMBUF  MFLUSH  NUMDCD  KCARD1  KCARD2
                    339994      50  340000    1002      46       1      50
Plot timespan now in memory (in sec) = 8.49839970E-02   1.27477000E-01
   ++++  Begin plot-data copy from memory to disk.   MFLUSH, INDBUF, N4, Tbeg,  Tend = 1003  339994       1  -1.00000E+00
1.00000E+19
 127500     .1275  -318137.44 431968.868 1961.27863 430007.589  -750106.3 320098.714 65.3759543
 128000      .128  -347401.55 405150.229  2012.8456 403137.383 -752551.78 349414.398 67.0948534
 128500     .1285  -370645.59 371539.584 2085.04461 369454.539 -742185.18 372730.638 69.5014869
 129000      .129  -388872.99 332844.803 2160.08647 330684.716 -721717.79 391033.078 72.0028822
 129500     .1295  -402279.48 290211.278  2217.0932 287994.184 -692490.75 404496.568 73.9031067
 130000       .13  -409035.18 243069.662 2246.05618 240823.606 -652104.84 411281.234 74.8685394
 130500     .1305  -407945.07 191434.669 2251.31267 189183.357 -599379.74 410196.384 75.0437556
 131000      .131  -397854.73 135035.703 2248.72247 132786.981 -532890.43 400103.451 74.9574157
 131500     .1315  -379759.69 75436.6648 2255.91715 73180.7477 -455196.35 382015.605 75.1972384
 132000      .132  -355627.39 14895.3342 2275.67186 12619.6624 -370522.73 357903.065 75.8557286
 132500     .1325  -327135.43 -44462.107 2288.46523 -46750.572 -282673.33 329423.898 76.2821745
 133000      .133  -294497.84 -101707.33 2279.05864 -103986.39 -192790.51 296776.899 75.9686212
 133500     .1335  -256927.85 -156986.06   2241.192 -159227.25 -99941.792 259169.045 74.7064001
 134000      .134   -213916.5 -210248.96 2183.37792 -212432.34 -3667.5388 216099.876 72.7792639
 134500     .1345  -165563.64 -261400.25 2124.52706 -263524.78 95836.6111 167688.167 70.8175686
 135000      .135  -113860.12 -308686.76 2077.84779 -310764.61 194826.643 115937.964 69.2615931
 135500     .1355  -61117.261 -350243.11 2040.27456 -352283.39  289125.85 63157.5354 68.0091519
 136000      .136  -9271.4966 -384391.92 1990.11785 -386382.04 375120.422 11261.6144 66.3372616
 136500     .1365  41664.9986 -411103.38 1914.93527 -413018.31 452768.378 -39750.063 63.8311756
 137000      .137  91920.5293 -430843.59 1815.47677 -432659.07 522764.119 -90105.053 60.5158924
 137500     .1375   141775.01 -444197.48 1706.26559 -445903.74 585972.488 -140068.74 56.8755196
 138000      .138  190549.596 -451342.57 1607.87309 -452950.45  641892.17 -188941.72 53.5957696
 138500     .1385  236066.211 -451140.62 1529.49807 -452670.12 687206.831 -234536.71 50.9832689
 139000      .139  276364.007 -442688.38 1463.07768 -444151.45 719052.382 -274900.93 48.7692562
 139500     .1395  310065.899 -425409.69 1388.23218 -426797.92 735475.589 -308677.67 46.2744061
 140000       .14  337807.789 -400430.43 1296.55817 -401726.99 738238.222 -336511.23 43.2186056
 140500     .1405  360083.163 -368921.38 1193.82159  -370115.2 729004.544 -358889.34  39.794053
 141000      .141  377510.597  -332261.2 1095.72033 -333356.92 709771.799 -376414.88 36.5240112
 141500     .1415  389570.313 -291082.08 1020.17877 -292102.26 680652.394 -388550.13 34.0059588
 142000      .142  394682.319 -245054.22 972.337135 -246026.56  639736.54 -393709.98 32.4112378
 142500     .1425  391790.042 -194162.77 939.406822 -195102.17 585952.807 -390850.63 31.3135607
 143000      .143  380692.177 -138892.29 902.820949 -139795.11 519584.466 -379789.36 30.0940316
 143500     .1435  362873.774 -81101.622 855.922364 -81957.544 443975.396 -362017.85 28.5307455
 144000      .144  339542.038   -22410.2  805.67416 -23215.875 361952.239 -338736.36 26.8558053
 144500     .1445  311834.909 35503.8919 767.506801 34736.3851 276331.017  -311067.4   25.58356
 145000      .145  279675.486 91990.7307 756.111654  91234.619 187684.755 -278919.37 25.2037218
 145500     .1455  242333.728 147055.292 772.671299  146282.62 95278.4367 -241561.06   25.75571
 146000      .146  199652.431 200466.142 800.683451 199665.459 -813.71165 -198851.75 26.6894484
 146500     .1465  152552.726 251327.301 824.055333 250503.245 -98774.574 -151728.67 27.4685111
 147000      .147  103031.278 297899.225 838.305349 297060.919 -194867.95 -102192.97 27.9435116
 147500     .1475  52770.6505 338812.837 851.399677 337961.437 -286042.19 -51919.251 28.3799892
 148000      .148  3053.07292 372917.867 878.064236 372039.803 -369864.79 -2175.0087 29.2688079
 148500     .1485  -46075.833 400227.182 928.346889 399298.835 -446303.01 47004.1796 30.9448963
 149000      .149  -94896.793 421127.312 998.712251   420128.6 -516024.11 95895.5056 33.2904084
 149500     .1495  -143207.62 435847.986 1071.10102 434776.885 -579055.61  144278.72 35.7033675
 150000       .15   -189627.4 443823.497 1132.54762  442690.95  -633450.9 190759.947 37.7515875
 150500     .1505  -232357.31 444149.131 1181.14791 442967.984 -676506.44 233538.461 39.3715971
 151000      .151  -269939.43 436287.102 1225.23515 435061.867 -706226.53 271164.662 40.8411718
 151500     .1515   -301630.5 420162.029 1277.61004 418884.419 -721792.53 302908.115 42.5870014
 152000      .152  -327861.09 396785.785 1343.93227 395441.852 -724646.88 329205.026 44.7977422
 152500     .1525  -349122.17 367272.571 1417.28044 365855.291 -716394.74 350539.451 47.2426813
 153000      .153  -365481.06 332542.015 1480.87769 331061.137 -698023.07 366961.937 49.3625897
 153500     .1535  -375868.68 292632.598 1525.44088 291107.157 -668501.28 377394.124 50.8480294
 154000      .154  -379287.42 247564.792 1552.33613 246012.456 -626852.22  380839.76 51.7445375
 154500     .1545  -375108.21 197629.358 1570.93946 196058.418 -572737.57 376679.154 52.3646488
 155000      .155  -363591.52  143699.28 1592.61531 142106.664  -507290.8 365184.135 53.0871769
 155500     .1555  -345965.33 87469.5465 1620.29178 85849.2547 -433434.88 347585.625 54.0097261
 156000      .156  -323284.53  30484.098 1645.02645 28839.0715 -353768.63 324929.557 54.8342151
 156500     .1565  -296110.64 -26082.246  1652.8887 -27735.134 -270028.39 297763.527 55.0962902
 157000      .157  -264019.45 -81947.329 1638.70914 -83586.039 -182072.12  265658.16  54.623638
 157500     .1575  -226881.52 -136723.44  1607.4336 -138330.87 -90158.082 228488.955 53.5811201
 158000      .158  -184942.75 -189867.37 1569.71548 -191437.09 4924.62737 186512.461 52.3238495
 158500     .1585  -139338.73 -240248.06 1535.30222 -241783.37 100909.335 140874.032 51.1767405
 159000      .159  -91829.062 -286269.81 1504.85349 -287774.67  194440.75 93333.9159 50.1617831
 159500     .1595  -43796.635 -326680.37 1468.25107 -328148.62 282883.732 45264.8858 48.9417024
 160000       .16  4052.04989 -360815.21 1415.10974 -362230.32 364867.257 -2636.9401 47.1703247
 160500     .1605  51783.9407 -388797.04 1344.33057 -390141.37 440580.984  -50439.61 44.8110189
 161000      .161  99159.6091 -410627.11  1263.6015 -411890.71 509786.716 -97896.008   42.12005
 161500     .1615  145573.958 -426200.75 1184.15152  -427384.9 571774.704 -144389.81 39.4717174
 162000      .162  189654.709 -434863.82 1113.67826  -435977.5 624518.531 -188541.03 37.1226087
 162500     .1625  229800.011 -435814.91 1050.70479 -436865.62 665614.925 -228749.31 35.0234931
 163000      .163  264935.067 -428679.21 984.773565 -429663.99 693614.281 -263950.29 32.8257855
 163500     .1635  294844.008 -413804.47 908.686827 -414713.16 708648.478 -293935.32 30.2895609
 164000      .164  319831.406 -392092.25 824.332725 -392916.58 711923.658 -319007.07 27.4777575
 164500     .1645  339954.812 -364304.36  740.61073 -365044.97  704259.17  -339214.2 24.6870243
 165000      .165   354898.45 -331031.91 668.105544 -331700.02 685930.364 -354230.34 22.2701848
 165500     .1655  363735.117 -292338.77 611.801639 -292950.57  656073.89 -363123.32  20.393388
 166000      .166  365632.685 -248329.94 567.626855 -248897.57 613962.624 -365065.06 18.9208952
 166500     .1665  360351.759 -199508.69 524.941221 -200033.63 559860.451 -359826.82 17.4980407
 167000      .167  348564.547 -147081.63 478.604218 -147560.24 495646.181 -348085.94 15.9534739
 167500     .1675  331181.087 -92492.651 432.091682 -92924.743 423673.738   -330749. 14.4030561
 168000      .168  308873.283 -36972.061  394.11054 -37366.172 345845.345 -308479.17  13.137018
 168500     .1685  281883.242 18574.6768 373.274164 18201.4026 263308.566 -281509.97 12.4424721
 169000      .169  249965.146 73761.1117 371.310935 73389.8007 176204.035 -249593.84 12.3770312
 169500     .1695  213144.737  128099.61 381.394116 127718.216 85045.1273 -212763.34 12.7131372
  % % % % % %   Suspended simulation;  plot data space exhausted;  SPY SPACE is required.   LIMBUF =  340000.
  % % % % % %   Suspended simulation;  plot data space exhausted;  SPY SPACE is required.   LIMBUF =  340000.
  +++  Time-sharing disabled.   Send  user-keyed interrupt to silence alarm.
   Current values.  INDBUF  INDBEG  LIMBUF  MFLUSH  NUMDCD  KCARD1  KCARD2
                    339994      50  340000    1003      46       1      50
Plot timespan now in memory (in sec) = 1.27476007E-01   1.69969000E-01
   ++++  Begin plot-data copy from memory to disk.   MFLUSH, INDBUF, N4, Tbeg,  Tend = 1004  339994       1  -1.00000E+00
1.00000E+19
 170000       .17    172019.2 180786.115 393.072533 180393.043 -8766.9155 -171626.13 13.1024178
 170500     .1705  127967.766 230462.229 402.652869 230059.576 -102494.46 -127565.11 13.4217623
 171000      .171  82324.4427 275837.309 414.303852 275423.005 -193512.87 -81910.139 13.8101284
 171500     .1715  36107.7047 315933.074 435.747969 315497.326 -279825.37 -35671.957 14.5249323
 172000      .172   -10187.48  350249.94 472.959341  349776.98 -360437.42 10660.4398 15.7653114
 172500     .1725  -56463.889  378760.39 524.664342 378235.726 -435224.28 56988.5538 17.4888114
 173000      .173  -102313.44 401329.982 582.018376 400747.963 -503643.42 102895.457 19.4006125
 173500     .1735  -146824.35 417558.783 635.519125 416923.264 -564383.13  147459.87 21.1839708
 174000      .174  -188561.72  426679.58 682.939776  425996.64  -615241.3 189244.655 22.7646592
 174500     .1745  -226365.73 428187.579 728.864779 427458.714 -654553.31 227094.592 24.2954926
 175000      .175  -259503.08 421944.095 780.010934 421164.084 -681447.18 260283.093 26.0003645
 175500     .1755  -287833.25 408348.002 839.998766 407508.003 -696181.25  288673.25 27.9999589
 176000      .176  -311508.96  388134.55 905.475507 387229.075 -699643.51 312414.434 30.1825169
 176500     .1765  -330389.51 361895.767 966.952788 360928.814 -692285.28 331356.462 32.2317596
 177000      .177  -343885.37 329925.852 1016.87483 328908.977 -673811.22 344902.247 33.8958276
 177500     .1775  -351157.46 292290.942 1055.01739 291235.925  -643448.4 352212.479 35.1672462
 178000      .178   -351763.9 249361.121 1086.69449 248274.426 -601125.02 352850.593 36.2231498
 178500     .1785  -345749.67 201841.073 1118.10218 200722.971 -547590.74 346867.769 37.2700728
 179000      .179  -333729.07 150899.599  1151.3191  149748.28 -484628.67 334880.387 38.3773032
 179500     .1795  -316448.03 97822.3692 1182.02186 96640.3473  -414270.4 317630.057 39.4007288
 180000       .18   -294347.6  43654.947 1201.57649 42453.3705 -338002.54 295549.172 40.0525495
 180500     .1805  -267427.01 -10949.947 1205.21081 -12155.157 -256477.06 268632.222 40.1736936
 181000      .181  -235628.05 -65498.155  1195.1136 -66693.268  -170129.9 236823.166 39.8371201
 181500     .1815  -199288.95 -119263.14 1177.55285 -120440.69 -80025.809   200466.5 39.2517618
 182000      .182   -159200.4 -171274.22 1158.45614 -172432.68 12073.8253 160358.856 38.6152047
 182500     .1825   -116585.7 -220259.21 1138.97034 -221398.18 103673.516 117724.667 37.9656781
 183000      .183  -72588.318 -265061.77 1114.53259 -266176.31 192473.456 73702.8505 37.1510863
 183500     .1835    -27977.2 -304880.93 1078.25832 -305959.18 276903.726 29055.4586 35.9419441
 184000      .184  16941.7261 -339386.11 1028.25415 -340414.36 356327.834 -15913.472 34.2751382
 184500     .1845  61829.7623 -368361.31 968.816275 -369330.12 430191.071 -60860.946 32.2938758
 185000      .185   106031.75 -391447.61 906.825771 -392354.44 497479.361 -105124.92 30.2275257
 185500     .1855  148542.524 -408119.05 847.623111 -408966.68 556661.578  -147694.9 28.2541037
 186000      .186  188127.386 -417709.58 791.455498 -418501.03 605836.965 -187335.93 26.3818499
 186500     .1865  223831.248 -419822.86  733.61939 -420556.48 643654.113 -223097.63 24.4539797
 187000      .187  255159.602 -414477.96 668.982725 -415146.94  669637.56 -254490.62 22.2994242
 187500     .1875  282069.646 -402142.75 597.847679  -402740.6 684212.395  -281471.8  19.928256
 188000      .188  304446.583 -383320.18 525.641824 -383845.83 687766.766 -303920.94 17.5213941
 188500     .1885  321939.367 -358392.56 458.979239 -358851.54 680331.928 -321480.39  15.299308
 189000      .189  333946.679 -327580.22 401.837646 -327982.05 661526.895 -333544.84 13.3945882
 189500     .1895  339823.276 -291052.24 353.108042 -291405.35 630875.518 -339470.17 11.7702681
 190000       .19  339317.697 -249273.37 307.631585   -249581. 588591.067 -339010.07 10.2543862
 190500     .1905   332670.51 -203086.47 261.461976 -203347.93 535756.978 -332409.05  8.7153992
 191000      .191   320476.29 -153640.27 216.059405 -153856.33 474116.556 -320260.23 7.20198018
 191500     .1915  303202.292 -101985.14 176.797375 -102161.94 405187.433 -303025.49 5.89324584
 192000      .192  281097.125 -48987.609 149.036764 -49136.646 330084.734 -280948.09 4.96789212
 192500     .1925  254200.511 4710.43004  134.68745 4575.74259 249490.081 -254065.82 4.48958167
 193000      .193  222614.379 58506.8052 130.891061 58375.9141 164107.574 -222483.49 4.36303535
 193500     .1935  186831.694 111576.675 131.867421 111444.808  75255.019 -186699.83 4.39558069
 194000      .194   147775.18 162826.821 134.359032 162692.461 -15051.641 -147640.82 4.47863441
 194500     .1945  106536.775  211065.91 140.203476 210925.706 -104529.13 -106396.57 4.67344921
 195000      .195   63985.079 255343.912 153.964499 255189.947 -191358.83 -63831.115 5.13214995
 195500     .1955   20721.024 294988.148 179.260829 294808.888 -274267.12 -20541.763 5.97536095
 196000      .196  -22876.872 329615.101 215.849942 329399.251 -352491.97 23092.7215 7.19499806
 196500     .1965  -66341.318 358889.674 259.305769 358630.368 -425230.99 66600.6243 8.64352564
 197000      .197  -108897.54 382340.369 303.610204 382036.758 -491237.91 109201.151 10.1203401
 197500     .1975  -149472.57 399337.078  346.21681 398990.861 -548809.65 149818.787 11.5405603
 198000      .198   -187035.5 409326.815 389.187345 408937.628 -596362.31 187424.686 12.9729115
 198500     .1985  -220879.86 412077.276  436.26029 411641.016 -632957.14 221316.123 14.5420097
 199000      .199  -250628.25 407675.636 489.545091 407186.091 -658303.89 251117.794 16.3181697
 199500     .1995  -276137.38 396487.826 547.271385 395940.555 -672625.21 276684.651 18.2423795
 200000       0.2  -297174.69 378889.992 604.261588 378285.731 -676064.68 297778.948 20.1420529
 200500     .2005  -313286.47 355142.329 655.140075 354487.189  -668428.8 313941.613 21.8380025
 201000      .201  -323853.95 325393.107 698.572928 324694.534 -649247.06 324552.527 23.2857643
 201500     .2015   -328454.7 289939.896 737.191108 289202.705 -618394.59 329191.886 24.5730369
 202000      .202  -327035.29 249374.682 774.399835 248600.282 -576409.97 327809.689 25.8133278
 202500     .2025   -319876.7 204555.809 811.474168 203744.335 -524432.51 320688.171 27.0491389
 203000      .203  -307442.55 156508.126 846.068291 155662.058 -463950.68  308288.62 28.2022764
 203500     .2035  -290073.92 106161.855 873.300012 105288.555 -396235.77 290947.219 29.1100004
 204000      .204  -267916.86   54270.12 889.340259 53380.7797 -322186.98 268806.203 29.6446753
 204500     .2045  -241029.49 1452.92253 894.573078 558.349448 -242482.41 241924.059 29.8191026
 205000      .205  -209714.26  -51548.42 892.536993 -52440.957 -158165.84 210606.802 29.7512331
 205500     .2055  -174598.24 -103804.29  886.74103 -104691.03 -70793.956 175484.985 29.5580343
 206000      .206  -136563.26 -154239.96 878.186433 -155118.14  17676.697 137441.446 29.2728811
 206500     .2065  -96545.227 -201781.88 864.641502 -202646.52 105236.652 97409.8682 28.8213834
 207000      .207  -55276.615 -245577.33 842.207917 -246419.54 190300.718 56118.8229 28.0735972
 207500     .2075  -13257.417 -285037.72   808.9794  -285846.7 271780.307  14066.396   26.96598
 208000      .208  29083.7528 -319741.25 767.055927 -320508.31 348825.007 -28316.697 25.5685309
 208500     .2085  71114.7214 -349204.77 720.745963 -349925.52 420319.494 -70393.975 24.0248654
 209000      .209   111985.31   -372865. 673.587561 -373538.59 484850.312 -111311.72 22.4529187
 209500     .2095  150722.088 -390127.19 626.342739 -390753.53 540849.275 -150095.75 20.8780913
 210000       .21  186455.384  -400533.7 576.963828 -401110.66 586989.085 -185878.42 19.2321276
 210500     .2105  218607.131 -403920.16 522.556133 -404442.72 622527.295 -218084.58 17.4185378
 211000      .211  246878.075  -400417.8 462.789288 -400880.59 647295.877 -246415.29 15.4263096
 211500     .2115  271037.611 -390301.51 400.835444 -390702.34 661339.119 -270636.78 13.3611815
 212000      .212  290713.428 -373798.84 341.088806 -374139.93 664512.266 -290372.34 11.3696269
  % % % % % %   Suspended simulation;  plot data space exhausted;  SPY SPACE is required.   LIMBUF =  340000.
  % % % % % %   Suspended simulation;  plot data space exhausted;  SPY SPACE is required.   LIMBUF =  340000.
  +++  Time-sharing disabled.   Send  user-keyed interrupt to silence alarm.
   Current values.  INDBUF  INDBEG  LIMBUF  MFLUSH  NUMDCD  KCARD1  KCARD2
                    339994      50  340000    1004      46       1      50
Plot timespan now in memory (in sec) = 1.69967994E-01   2.12461000E-01
   ++++  Begin plot-data copy from memory to disk.   MFLUSH, INDBUF, N4, Tbeg,  Tend = 1005  339994       1  -1.00000E+00
1.00000E+19
 212500     .2125  305415.992  -351094.7 286.518889 -351381.21 656510.687 -305129.47 9.55062964
 213000      .213  314647.202 -322383.36 237.199889 -322620.56 637030.567   -314410. 7.90666297
 213500     .2135  318124.568  -288036.1 190.851072 -288226.95 606160.666 -317933.72  6.3617024
 214000      .214  315891.651 -248690.86 145.111552 -248835.97 564582.512 -315746.54 4.83705172
 214500     .2145  308258.888 -205214.06 100.444491 -205314.51 513472.953 -308158.44  3.3481497
 215000      .215  295561.537 -158510.54 60.1459656 -158570.69 454072.078 -295501.39 2.00486552
 215500     .2155  278010.321 -109378.08 27.8397075 -109405.92 387388.399 -277982.48 .927990251
 216000      .216  255736.542 -58524.636 5.23150079 -58529.868 314261.179 -255731.31  .17438336
 216500     .2165   228909.08 -6630.8536 -8.7836413 -6622.0699 235539.933 -228917.86 -.29278804
 217000      .217  197931.614 45497.5252 -17.132436 45514.6576 152434.089 -197948.75  -.5710812
 217500     .2175  163484.243  96891.819 -22.096894 96913.9159 66592.4241 -163506.34 -.73656312
 218000      .218  126418.254 146491.858 -23.084479 146514.943 -20073.604 -126441.34 -.76948262
 218500     .2185  87510.0966 193344.386 -17.369777 193361.756 -105834.29 -87527.466 -.57899257
 219000      .219  47368.7486 236695.459 -2.5973053 236698.056 -189326.71 -47371.346 -.08657684
 219500     .2195  6495.24442 275958.975  21.403733 275937.571 -269463.73 -6473.8407 .713457767
 220000       .22  -34590.658 310633.048 52.2971027  310580.75 -345223.71 34642.9553 1.74323676
 220500     .2205  -75192.184 340167.494 86.5642742 340080.929 -415359.68 75278.7487 2.88547581
 221000      .221  -114443.12 363956.437 121.996669  363834.44 -478399.56 114565.117 4.06655563
 221500     .2215  -151448.49 381430.664 159.178005 381271.486 -532879.16  151607.67 5.30593349
 222000      .222  -185503.53 392233.609 200.177412 392033.431 -577737.14 185703.708  6.6725804
 222500     .2225  -216131.62 396258.077 246.218224 396011.859 -612389.69 216377.836 8.20727414
 223000      .223  -243007.98 393594.867   296.3031 393298.563 -636602.84  243304.28 9.87676999
 223500     .2235  -265820.18 384423.388 347.397912  384075.99 -650243.57 266167.582 11.5799304
 224000      .224   -284149.8  368900.48  395.99227 368504.488 -653050.28 284545.789 13.1997423
 224500     .2245  -297508.55 347167.633 440.427815 346727.205 -644676.18 297948.975 14.6809272
 225000      .225  -305496.95 319453.557 481.637073  318971.92  -624950.5 305978.583 16.0545691
 225500     .2255  -307972.51 286208.362  521.45495 285686.907 -594180.87 308493.964 17.3818317
 226000      .226  -305036.66 248091.889  560.56362 247531.325 -553128.55 305597.221  18.685454
 226500     .2265  -296938.67 205902.078 597.554833 205304.523 -502840.75 297536.225 19.9184944
 227000      .227  -283926.08 160447.873 629.516566 159818.357 -444373.96   284555.6 20.9838855
 227500     .2275  -266162.92 112463.392 653.734612 111809.657 -378626.31 266816.657 21.7911537
 228000      .228  -243782.33 62626.7094 669.682871 61957.0266 -306409.04 244452.016 22.3227624
 228500     .2285  -217046.47 11667.9744 679.080461 10988.8939 -228714.44 217725.549 22.6360154
 229000      .229  -186455.27  -39540.93 684.000038  -40224.93 -146914.34 187139.272 22.8000013
 229500     .2295  -152692.54 -90029.236 685.141785 -90714.377 -62663.308 153377.685 22.8380595
 230000       .23  -116513.41   -138811. 681.319562 -139492.32 22297.5928  117194.73 22.7106521
 230500     .2305  -78597.081 -185010.89 670.338571 -185681.22 106413.804 79267.4199  22.344619
 231000      .231  -39500.229 -227917.35 650.742789 -228568.09 188417.121 40150.9721 21.6914263
 231500     .2315  274.931227 -266945.28 623.344116 -267568.63 267220.214 348.412889 20.7781372
 232000      .232  40129.7066 -301522.54  590.70182 -302113.24 341652.243 -39539.005 19.6900607
 232500     .2325  79313.0131  -331035.3 555.194564 -331590.49 410348.308 -78757.819 18.5064855
 233000      .233  116999.297 -354881.71 517.647409 -355399.36 471881.011 -116481.65 17.2549136
 233500     .2335  152407.019 -372555.48 477.215349  -373032.7 524962.502  -151929.8 15.9071783
 234000      .234  184924.891 -383749.46 432.456535 -384181.92 568674.356 -184492.43 14.4152178
 234500     .2345  214121.964 -388370.95 383.029191 -388753.98 602492.912 -213738.93 12.7676397
 235000      .235   239659.12 -386478.13 330.703364 -386808.83 626137.246 -239328.42 11.0234455
 235500     .2355  261151.503 -378163.27 278.396627 -378441.66  639314.77 -260873.11 9.27988758
 236000      .236  278150.694 -363521.58 228.353983 -363749.94 641672.277 -277922.34 7.61179945
 236500     .2365   290228.97 -342701.63 181.138989 -342882.77 632930.604 -290047.83  6.0379663
 237000      .237   297091.01 -315980.24 135.871857 -316116.12 613071.255 -296955.14 4.52906191
 237500     .2375  298663.122 -283832.14 91.4256343 -283923.56  582495.26  -298571.7 3.04752114
 238000      .238  295066.723 -246909.76 47.9795546 -246957.74 541976.478 -295018.74 1.59931849
 238500     .2385  286507.525   -205955. 7.51848429 -205962.52 492462.529 -286500.01 .250616143
 239000      .239  273154.959 -161687.84 -27.426022 -161660.41 434842.799 -273182.39 -.91420073
 239500     .2395  255149.064 -114793.48 -55.379201  -114738.1 369942.541 -255204.44 -1.8459734
 240000       .24  232680.232 -65967.525 -76.566331 -65890.959 298647.757  -232756.8  -2.552211
 240500     .2405  206085.839 -15982.021 -92.380108  -15889.64  222067.86 -206178.22 -3.0793369
 241000      .241  175897.215 34277.1736 -104.12033 34381.2939 141620.041 -176001.34 -3.4706776
 241500     .2415  142782.342 83854.3048  -111.6675 83965.9723 58928.0376 -142894.01   -3.72225
 242000      .242  107420.274 131824.217 -113.44827 131937.665 -24403.943 -107533.72 -3.7816091
 242500     .2425  70404.5173 177383.598 -107.84274 177491.441 -106979.08  -70512.36 -3.5947581
 243000      .243   32268.621 219843.264 -94.505488 219937.769 -187574.64 -32363.126 -3.1501829
 243500     .2435  -6439.3555 258580.756 -74.657317 258655.414 -265020.11 6364.69818 -2.4885772
 244000      .244  -45076.111 292977.594 -50.332173 293027.927 -338053.71 45025.7788 -1.6777391
 244500     .2445  -82891.394 322402.839 -23.111651 322425.951 -405294.23 82868.2824 -.77038836
 245000      .245  -119103.93 346265.366 6.90710197 346258.459  -465369.3 119110.838 .230236732
 245500     .2455   -153025.8 364109.145 40.7510127 364068.394 -517134.95 153066.553 1.35836709
 246000      .246  -184125.75 375670.655 79.1426069 375591.513 -559796.41 184204.894  2.6380869
 246500     .2465  -211984.66 380847.153 121.486234 380725.667 -592831.82 212106.149 4.04954113
 247000      .247  -236220.57 379638.668 165.892217 379472.776 -615859.24 236386.465 5.52974058
 247500     .2475  -256420.14 372084.335 210.069971 371874.265 -628504.47 256630.208 7.00233238
 248000      .248  -272148.82 358255.759 252.532533 358003.227 -630404.58 272401.355 8.41775109
 248500     .2485  -283031.78 338306.822 293.289897 338013.532  -621338.6 283325.067 9.77632989
 249000      .249  -288859.97 312550.968 333.174104 312217.794 -601410.94 289193.147 11.1058035
 249500     .2495  -289614.02 281480.411 372.488567 281107.923 -571094.43 289986.511 12.4162856
 250000       .25  -285400.35 245712.872  410.29617 245302.575 -531113.22 285810.647  13.676539
 250500     .2505  -276371.19  205922.39 444.704004 205477.686 -482293.58 276815.893 14.8234668
 251000      .251  -262666.08 162778.039 473.820064 162304.219 -425444.12 263139.904 15.7940021
 251500     .2515  -244433.15 116943.775 496.828362 116446.947 -361376.93 244929.979 16.5609454
 252000      .252  -221906.06 69124.6661 514.328001 68610.3381 -291030.73 222420.388 17.1442667
 252500     .2525  -195482.13 20123.9026 527.431181 19596.4715 -215606.04 196009.564 17.5810394
 253000      .253   -165709.1 -29168.337   536.5609 -29704.898 -136540.77 166245.664 17.8853633
 253500     .2535  -133207.18 -77838.836 541.019805 -78379.856 -55368.343 133748.199 18.0339935
 254000      .254  -98586.917 -125022.44 539.470596 -125561.92 26435.5272 99126.3881 17.9823532
 254500     .2545  -62404.197 -169950.43 530.892871 -170481.32 107546.229 62935.0899  17.696429
  % % % % % %   Suspended simulation;  plot data space exhausted;  SPY SPACE is required.   LIMBUF =  340000.
  % % % % % %   Suspended simulation;  plot data space exhausted;  SPY SPACE is required.   LIMBUF =  340000.
  +++  Time-sharing disabled.   Send  user-keyed interrupt to silence alarm.
   Current values.  INDBUF  INDBEG  LIMBUF  MFLUSH  NUMDCD  KCARD1  KCARD2
                    339994      50  340000    1005      46       1      50
Plot timespan now in memory (in sec) = 2.12459996E-01   2.54953000E-01
   ++++  Begin plot-data copy from memory to disk.   MFLUSH, INDBUF, N4, Tbeg,  Tend = 1006  339994       1  -1.00000E+00
1.00000E+19
 255000      .255  -25189.679 -211939.13 515.470348  -212454.6 186749.447 25705.1489 17.1823449
 255500     .2555   12479.207 -250340.88 494.592463 -250835.47 262820.089 -11984.615 16.4864154
 256000      .256   49927.542 -284501.09  469.81923 -284970.91 334428.634 -49457.723  15.660641
 256500     .2565  86421.6406 -313784.34 441.875047 -314226.21  400205.98 -85979.766 14.7291682
 257000      .257  121249.881 -337634.66  410.47268 -338045.13 458884.543 -120839.41 13.6824227
 257500     .2575  153796.859 -355635.13 374.926891 -356010.05 509431.987 -153421.93  12.497563
 258000      .258  183567.421 -367532.09 335.064843 -367867.16 551099.513 -183232.36 11.1688281
 258500     .2585  210145.424 -373205.67 291.888137 -373497.56 583351.097 -209853.54 9.72960458
 259000      .259  233123.112 -372611.63 247.283523 -372858.91  605734.74 -232875.83 8.24278409
 259500     .2595  252070.319 -365745.48 202.950869 -365948.43 617815.803 -251867.37 6.76502898
 260000       .26   266583.49 -352670.21 159.623303 -352829.84 619253.704 -266423.87 5.32077678
 260500     .2605  276357.305 -333563.19 117.119752 -333680.31 609920.496 -276240.19 3.90399175
 261000      .261  281239.706 -308755.48 75.0390362 -308830.52 589995.185 -281164.67 2.50130121
 261500     .2615  281229.236 -278728.39 33.5912845 -278761.98 559957.628 -281195.64 1.11970948
 262000      .262  276418.672 -244065.31  -5.977988 -244059.33 520483.981 -276424.65 -.19926627
 262500     .2625  266923.793 -205386.03 -41.900896 -205344.13 472309.826 -266965.69 -1.3966965
 263000      .263  252865.669 -163317.27 -72.907378 -163244.36  416182.94 -252938.58 -2.4302459
 263500     .2635  234418.932 -118517.54 -98.764605 -118418.78 352936.472  -234517.7 -3.2921535
 264000      .264  211867.796 -71711.102 -120.02667 -71591.075 283578.898 -211987.82 -4.0008888
 264500     .2645  185636.957 -23708.194 -137.30348  -23570.89 209345.151 -185774.26 -4.5767827
 265000      .265  156263.951 24618.9661  -150.5338 24769.4999 131644.985 -156414.49 -5.0177933
 265500     .2655  124330.618 72394.3166  -158.7923 72553.1089 51936.3012 -124489.41 -5.2930768
 266000      .266  90395.7055 118800.669 -160.95175 118961.621 -28404.963 -90556.657 -5.3650584
 266500     .2665  54989.1962 163096.334 -156.58216 163252.916 -108107.14 -55145.778 -5.2194055
 267000      .267  18657.3284 204588.247 -146.25331   204734.5 -185930.92 -18803.582 -4.8751103
 267500     .2675  -17994.935 242602.753 -131.12661  242733.88 -260597.69 17863.8088 -4.3708868
 268000      .268   -54293.27 276475.463 -112.22609 276587.689 -330768.73 54181.0444 -3.7408697
 268500     .2685  -89536.917 305582.244 -89.840034 305672.084 -395119.16 89447.0774 -2.9946678
 269000      .269   -123069.4  329393.91 -63.540987 329457.451 -452463.31 123005.857 -2.1180329
 269500     .2695  -154332.19 347522.546  -32.92694 347555.473 -501854.73 154299.262 -1.0975647
 270000       .27  -182854.36  359717.32 1.64239666 359715.678 -542571.68 182856.005 .054746555
 270500     .2705  -208206.72  365828.57 38.9583621 365789.611 -574035.29 208245.682 1.29861207
 271000      .271  -229965.78 365774.746 77.4792069 365697.266 -595740.52 230043.255 2.58264023
 271500     .2715  -247714.27 359533.405 116.018925 359417.386 -607247.68 247830.293 3.86729751
 272000      .272  -261086.92 347167.959 154.193449 347013.766 -608254.88 261241.114 5.13978162
 272500     .2725  -269831.45 328869.106 192.212175 328676.894 -598700.56 270023.662  6.4070725
 273000      .273  -273839.22 304977.033 230.117153 304746.916 -578816.26  274069.34 7.67057176
 273500     .2735  -273115.43 275954.792 267.225162 275687.566 -549070.22 273382.657  8.9075054
 274000      .274  -267728.24 242341.976 302.219804 242039.756 -510070.21 268030.457 10.0739935
 274500     .2745  -257773.81 204716.607 333.720953 204382.886 -462490.42 258107.534 11.1240318
 275000      .275   -243380.8 163685.404 360.897536 163324.506  -407066.2 243741.694 12.0299179
 275500     .2755  -224750.56 119904.035 383.743953 119520.291 -344654.59 225134.302 12.7914651
 276000      .276  -202201.89 74104.7356 402.714029 73702.0215 -276306.62 202604.602  13.423801
 276500     .2765  -176176.11 27097.2378 417.989227 26679.2485 -203273.35 176594.102 13.9329742
 277000      .277  -147190.64 -20272.294 429.096278  -20701.39 -126918.35 147619.738 14.3032093
 277500     .2775  -115784.68  -67170.68 435.136659 -67605.816 -48613.999 116219.816 14.5045553
 278000      .278  -82486.685 -112813.19 435.360843 -113248.55  30326.503 82922.0462 14.5120281
 278500     .2785  -47822.027 -156467.78 429.676967 -156897.46 108645.752  48251.704 14.3225656
 279000      .279  -12347.664 -197434.98 418.753345 -197853.74 185087.321 12766.4171 13.9584448
 279500     .2795  23318.1147 -235026.71 403.534617 -235430.25 258344.826  -22914.58 13.4511539
 280000       .28  58509.6595 -268575.81 384.580084 -268960.39 327085.474 -58125.079 12.8193361
 280500     .2805  92567.3169 -297477.93 361.846004 -297839.78  390045.25 -92205.471 12.0615335
 281000      .281  124887.315  -321232.3  335.01295 -321567.31 446119.612  -124552.3 11.1670983
 281500     .2815  154944.571 -339463.42 304.029271 -339767.45 494407.992 -154640.54  10.134309
 282000      .282  182277.003 -351911.42 269.500413 -352180.92 534188.427  -182007.5 8.98334709
 282500     .2825  206450.906 -358403.88 232.630861 -358636.51 564854.787 -206218.28 7.75436205
 283000      .283    227039.4 -358832.92 194.671486 -359027.59 585872.315 -226844.73 6.48904954
 283500     .2835  243644.537 -353164.59 156.362871 -353320.95 596809.123 -243488.17  5.2120957
 284000      .284  255945.686 -341470.53 117.869552  -341588.4 597416.212 -255827.82 3.92898507
 284500     .2845  263735.881 -323952.11 79.1724257 -324031.28  587687.99 -263656.71 2.63908086
 285000      .285  266927.462 -300942.26 40.5605985 -300982.82 567869.726  -266886.9 1.35201995
 285500     .2855  265523.661 -272879.01  2.8992778 -272881.91 538402.671 -265520.76 .096642593
 286000      .286  259579.329 -240267.28   -32.5605 -240234.72 499846.607 -259611.89   -1.08535
 286500     .2865  249181.999 -203652.75 -64.750353 -203587.99 452834.744 -249246.75 -2.1583451
 287000      .287   234473.68 -163627.72 -93.210063 -163534.51 398101.396 -234566.89 -3.1070021
 287500     .2875  215687.107 -120850.74 -118.01617 -120732.73  336537.85 -215805.12 -3.9338725
 288000      .288  193164.505 -76055.274 -139.35191 -75915.922 269219.778 -193303.86 -4.6450635
 288500     .2885  167344.715 -30035.246 -157.07794 -29878.168 197379.961 -167501.79 -5.2359314
 289000      .289  138723.219 16391.8437 -170.57954 16562.4233 122331.376  -138893.8 -5.6859848
 289500     .2895  107809.689  62426.151 -179.05357 62605.2046 45383.5381 -107988.74 -5.9684524
 290000       .29  75112.1556 107308.099 -182.04494 107490.144 -32195.943 -75294.201 -6.0681647
 290500     .2905  41157.1403 150310.886 -179.72836 150490.615 -109153.75 -41336.869 -5.9909454
 291000      .291  6514.79375 190725.897 -172.72058 190898.618  -184211.1 -6687.5143 -5.7573526
 291500     .2915  -28196.192 227860.681  -161.6387 228022.319 -256056.87  28034.553 -5.3879568
 292000      .292  -62333.437 261058.677 -146.74213 261205.419 -323392.11 62186.6946 -4.8914042
 292500     .2925  -95274.522 289734.627 -127.88585 289862.513 -385009.15 95146.6357 -4.2628615
 293000      .293   -126454.8 313407.207 -104.87024 313512.077 -439862.01 126349.931 -3.4956748
 293500     .2935  -155374.15 331708.137  -77.91099 331786.048 -487082.28 155296.234  -2.597033
 294000      .294  -181573.98 344365.178 -47.780915 344412.959 -525939.15 181526.196 -1.5926972
 294500     .2945  -204616.48 351183.539 -15.535296 351199.074 -555800.02 204600.945  -.5178432
 295000      .295  -224085.15 352040.978  17.913902 352023.064 -576126.13 224103.065 .597130066
 295500     .2955  -239611.37 346902.497 52.0750085 346850.422 -586513.87 239663.446 1.73583362
 296000      .296  -250911.61 335844.575 86.8248973  335757.75 -586756.19  250998.44 2.89416324
 296500     .2965  -257811.71 319071.141  122.02458 318949.117 -576882.85 257933.735 4.06748601
 297000      .297  -260238.45 296904.089 157.134342 296746.955 -557142.54 260395.583  5.2378114
  % % % % % %   Suspended simulation;  plot data space exhausted;  SPY SPACE is required.   LIMBUF =  340000.
  % % % % % %   Suspended simulation;  plot data space exhausted;  SPY SPACE is required.   LIMBUF =  340000.
  +++  Time-sharing disabled.   Send  user-keyed interrupt to silence alarm.
   Current values.  INDBUF  INDBEG  LIMBUF  MFLUSH  NUMDCD  KCARD1  KCARD2
                    339994      50  340000    1006      46       1      50
Plot timespan now in memory (in sec) = 2.54952013E-01   2.97445000E-01
   ++++  Begin plot-data copy from memory to disk.   MFLUSH, INDBUF, N4, Tbeg,  Tend = 1007  339994       1  -1.00000E+00
1.00000E+19
 297500     .2975  -258189.19 269753.886  191.19357 269562.692 -527943.07  258380.38 6.37311901
 298000      .298  -251709.35 238093.766 223.146721 237870.619 -489803.11 251932.494 7.43822404
 298500     .2985  -240891.84 202449.187 252.226268 202196.961 -443341.03 241144.066 8.40754225
 299000      .299  -225898.12 163404.777 278.138537 163126.639  -389302.9 226176.258 9.27128456
 299500     .2995  -206983.11 121616.307   300.9221 121315.385 -328599.41 207284.028 10.0307367
 300000       0.3  -184502.24 77811.0568  320.55207 77490.5047  -262313.3 184822.796  10.685069
 300500     .3005  -158887.72 32764.0575 336.646342 32427.4112 -191651.77 159224.364 11.2215447
 301000      .301  -130611.45 -12737.844 348.541664 -13086.385  -117873.6 130959.989 11.6180555
 301500     .3015  -100160.89 -57923.419 355.635884 -58279.055 -42237.471 100516.526 11.8545295
 302000      .302  -68037.187 -102047.44 357.707017 -102405.15 34010.2522 68394.8942 11.9235672
 302500     .3025  -34770.706 -144385.58 355.003337 -144740.59 109614.877 35125.7097 11.8334446
 303000      .303  -935.41472 -184227.47 348.025702 -184575.49 183292.051 1283.44043 11.6008567
 303500     .3035  32857.1084 -220882.96 337.143044  -221220.1 253740.067 -32519.965 11.2381015
 304000      .304  65989.8308 -253708.96 322.389993 -254031.35 319698.791 -65667.441 10.7463331
 304500     .3045  97876.7371 -282140.66 303.614464 -282444.27 380017.393 -97573.123 10.1204821
 305000      .305  127982.535 -305710.34  280.80916 -305991.15 433692.878 -127701.73 9.36030533
 305500     .3055  155820.141 -324048.26 254.356392 -324302.62 479868.401 -155565.78 8.47854639
 306000      .306  180934.944 -336870.57 225.027846  -337095.6 517805.513 -180709.92  7.5009282
 306500     .3065  202894.061 -343968.28 193.712836   -344162. 546862.346 -202700.35 6.45709455
 307000      .307  221296.656 -345210.51  161.06892 -345371.58 566507.163 -221135.59 5.36896402
 307500     .3075  235804.233  -340563.7 127.410075 -340691.11 576367.937 -235676.82 4.24700249
 308000      .308  246167.635 -330109.42 92.9062923 -330202.32 576277.051 -246074.73 3.09687641
 308500     .3085  252234.856 -314047.52 57.8883543 -314105.41 566282.373 -252176.97 1.92961181
 309000      .309  253938.177 -292682.41 23.0192466 -292705.43 546620.589 -253915.16 .767308221
 309500     .3095  251272.642 -266400.23  -10.78104 -266389.45 517672.875 -251283.42   -.359368
 310000       .31  244282.995 -235650.37 -42.632997 -235607.74 479933.368 -244325.63 -1.4210999
 310500     .3105  233071.464 -200942.36 -71.988651 -200870.37 434013.827 -233143.45 -2.3996217
 311000      .311  217819.315 -162854.84 -98.654836 -162756.19 380674.158 -217917.97 -3.2884945
 311500     .3115  198799.823 -122039.35 -122.55675  -121916.8 320839.174 -198922.38 -4.0852252
 312000      .312  176371.733 -79209.782 -143.46754 -79066.314 255581.515  -176515.2 -4.7822512
 312500     .3125  150955.424 -35117.786 -160.90254 -34956.883 186073.209 -151116.33 -5.3634178
 313000      .313  123005.581 9475.93753  -174.2493 9650.18683 113529.643 -123179.83   -5.80831
 313500     .3135  92995.8738  53822.164 -183.06232 54005.2263 39173.7098 -93178.936 -6.1020773
 314000      .314  61423.7758 97187.4075 -187.27881 97374.6863 -35763.632 -61611.055 -6.2426272
 314500     .3145  28823.7814 138849.372 -187.16028 139036.533 -110025.59 -29010.942  -6.238676
 315000      .315  -4230.7321 178099.218 -183.03426 178282.253 -182329.95 4047.69784 -6.1011419
 315500     .3155   -37143.61 214256.584 -175.06314 214431.647 -251400.19 36968.5472 -5.8354379
 316000      .316  -69324.525 246694.533 -163.19598 246857.729 -316019.06 69161.3287 -5.4398661
 316500     .3165  -100215.72 274863.746 -147.33483 275011.081 -375079.47 100068.388  -4.911161
 317000      .317  -129303.62 298305.148 -127.60481 298432.752 -427608.77 129176.016 -4.2534936
 317500     .3175  -156111.67  316646.41 -104.48904 316750.899 -472758.08 156007.182  -3.482968
 318000      .318  -180189.39 329592.884 -78.703192 329671.587 -509782.27 180110.688 -2.6234397
 318500     .3185  -201113.82 336926.167 -50.933764   336977.1 -538039.98 201062.882 -1.6977921
 319000      .319  -218506.36 338513.657 -21.652575 338535.309 -557020.02 218484.711  -.7217525
 319500     .3195  -232057.12 334324.195 8.87858905 334315.317 -566381.32    232066. .295952968
 320000       .32  -241542.74 324439.319 40.4184297 324398.901 -565982.06 241583.156 1.34728099
 320500     .3205  -246827.31 309051.253 72.5126974  308978.74 -555878.56 246899.822 2.41708991
 321000      .321  -247847.26 288446.771  104.43407 288342.337 -536294.03 247951.697 3.48113566
 321500     .3215  -244596.64 262989.317 135.352597 262853.964 -507585.96 244731.997 4.51175323
 322000      .322  -237125.32 233109.842 164.580408 232945.262 -470235.16 237289.897 5.48601359
 322500     .3225  -225550.01 199307.532 191.703623 199115.829 -424857.54  225741.71 6.39012076
 323000      .323  -210068.57 162154.012 216.527173 161937.485 -372222.58 210285.097 7.21757243
 323500     .3235  -190964.98 122291.408 238.870783 122052.537 -313256.39 191203.851 7.96235945
 324000      .324  -168597.43 80417.5289 258.376654 80159.1523 -249014.96 168855.806 8.61255514
 324500     .3245   -143374.7  37260.811 274.510634 36986.3004 -180635.51 143649.206 9.15035446
 325000      .325  -115737.17 -6442.1981 286.753743 -6728.9519 -109294.98 116023.928 9.55845809
 325500     .3255  -86151.318 -49959.121 294.811802 -50253.933 -36192.197 86446.1296 9.82706008
 326000      .326  -55114.881 -92564.654 298.688639 -92863.342 37449.7727 55413.5695 9.95628796
 326500     .3265  -23162.512 -133541.43 298.584486 -133840.02 110378.919 23461.0969 9.95281621
 327000      .327  9139.06543 -172187.39 294.686437 -172482.08 181326.456  -8844.379 9.82288122
 327500     .3275  41210.7728 -207834.11 287.019036 -208121.13 249044.883 -40923.754  9.5673012
 328000      .328  72487.3287 -239870.69 275.492617 -240146.19 312358.022 -72211.836 9.18308724
 328500     .3285  102434.879 -267761.22 260.096414 -268021.31 370196.096 -102174.78 8.66988047
 329000      .329  130554.829 -291050.83 241.062778  -291291.9 421605.662 -130313.77 8.03542594
 329500     .3295  156378.688 -309363.21 218.883629  -309582.1   465741.9  -156159.8 7.29612097
 330000       .33  179464.517 -322397.18 194.172439 -322591.35 501861.696 -179270.34 6.47241464
[...]

                    662492.44 -674966.14 -729138.59 .1144947E7 -.107707E7 -.120305E7 2453.80416
Times of maxima :     .018461    .714012    .003359    .004695    .006605    .002855    .713634
             Random switching times for simulation number  296  :
                                   1  5.5801796E-02    2  5.4258744E-02    3  5.4176209E-02    4  1.0357663E-02    5  6.9853327E-01
                                   6  6.9869586E-01    7  6.9958808E-01

                   662930.593 -712887.54 -729138.59 .1144947E7 -.107707E7 -.120305E7 2521.11031
Times of maxima :      .01838    .714023    .003359    .004695    .006605    .002855    .713644
             Random switching times for simulation number  297  :
                                   1  5.6055230E-02    2  5.4163897E-02    3  5.4929744E-02    4  9.5205641E-03    5  7.0046628E-01
                                   6  6.9931070E-01    7  6.9985771E-01

                   657751.585 -663835.21 -729138.59 .1144947E7 -.107707E7 -.120305E7 2554.47506
Times of maxima :     .018363    .714044    .003359    .004695    .006605    .002855    .014549
             Random switching times for simulation number  298  :
                                   1  5.4402657E-02    2  5.4726493E-02    3  5.5809066E-02    4  1.1302849E-02    5  6.9999931E-01
                                   6  6.9999918E-01    7  7.0135056E-01

                    659695.96  -676639.8 -729138.59 .1144947E7 -.107707E7 -.120305E7 2489.48323
Times of maxima :       .0185    .713792    .003359    .004695    .006605    .002855    .714021
             Random switching times for simulation number  299  :
                                   1  5.4359107E-02    2  5.5309833E-02    3  5.5354775E-02    4  9.7516764E-03    5  7.0067447E-01
                                   6  7.0174165E-01    7  7.0054964E-01

                   659619.929 -677085.54 -729138.59 .1144947E7 -.107707E7 -.120305E7 2464.29489
Times of maxima :     .018334    .713806    .003359    .004695    .006605    .002855    .713673
             Random switching times for simulation number  300  :
                                   1  5.6212631E-02    2  5.5400460E-02    3  5.4330646E-02    4  9.8967378E-03    5  7.0009595E-01
                                   6  7.0031249E-01    7  6.9985806E-01

                   661022.254 -675867.47 -729138.59 .1144947E7 -.107707E7 -.120305E7 2462.77815
Times of maxima :     .018332     .71385    .003359    .004695    .006605    .002855    .714083

 MAIN20 dumps OVER12 dice seed  SEEDSV =   3.0444871000000000E+09

Statistical output of  node  voltage   0.4287E+06 |              X0003AX0003BX0003C

1 ) -------------------------------------------------------------------------------------------------------------------------------
Statistical distribution of peak voltage at node  "X0003A".   The base voltage for per unit printout is  V-base = 4.28660705E+05
  Interval             voltage         voltage  in     Frequency    Cumulative               Per cent
    number         in per unit      physical units     (density)     frequency     .GE. current value
        30           1.5000000      6.42991058E+05             0             0          100.000000
        31           1.5500000      6.64424093E+05           267           267           11.000000
        32           1.6000000      6.85857128E+05             6           273            9.000000
        33           1.6500000      7.07290163E+05             5           278            7.333333
        34           1.7000000      7.28723199E+05             3           281            6.333333
        35           1.7500000      7.50156234E+05             9           290            3.333333
        36           1.8000000      7.71589269E+05             8           298             .666667
        37           1.8500000      7.93022304E+05             2           300             .000000
Summary of preceding table follows:       Grouped data     Ungrouped data
                                 Mean = 1.54383333E+00     1.55761265E+00
                             Variance = 3.56552397E-03     3.17748281E-03
                   Standard deviation = 5.97120086E-02     5.63691654E-02

2 ) -------------------------------------------------------------------------------------------------------------------------------
Statistical distribution of peak voltage at node  "X0003B".   The base voltage for per unit printout is  V-base = 4.28660705E+05
  Interval             voltage         voltage  in     Frequency    Cumulative               Per cent
    number         in per unit      physical units     (density)     frequency     .GE. current value
        30           1.5000000      6.42991058E+05             0             0          100.000000
        31           1.5500000      6.64424093E+05            60            60           80.000000
        32           1.6000000      6.85857128E+05           134           194           35.333333
        33           1.6500000      7.07290163E+05            77           271            9.666667
        34           1.7000000      7.28723199E+05            23           294            2.000000
        35           1.7500000      7.50156234E+05             1           295            1.666667
        36           1.8000000      7.71589269E+05             0           295            1.666667
        37           1.8500000      7.93022304E+05             0           295            1.666667
        38           1.9000000      8.14455340E+05             0           295            1.666667
        39           1.9500000      8.35888375E+05             0           295            1.666667
        40           2.0000000      8.57321410E+05             0           295            1.666667
        41           2.0500000      8.78754445E+05             0           295            1.666667
        42           2.1000000      9.00187481E+05             2           297            1.000000
        43           2.1500000      9.21620516E+05             3           300             .000000
Summary of preceding table follows:       Grouped data     Ungrouped data
                                 Mean = 1.59483333E+00     1.59399874E+00
                             Variance = 6.30264771E-03     6.25985983E-03
                   Standard deviation = 7.93892166E-02     7.91192760E-02

3 ) -------------------------------------------------------------------------------------------------------------------------------
  SUMMARY   SUMMARY   SUMMARY   SUMMARY   SUMMARY   SUMMARY   SUMMARY   SUMMARY   SUMMARY   SUMMARY   SUMMARY   SUMMARY   SUMMARY
3 ) -------------------------------------------------------------------------------------------------------------------------------
The following is a distribution of peak overvoltages among all output nodes of the last data card that have the same base voltage.
This distribution is for the maximum of the peaks at all output nodes with  V-base = 4.28660705E+05
  Interval             voltage         voltage  in     Frequency    Cumulative               Per cent
    number         in per unit      physical units     (density)     frequency     .GE. current value
        34           1.7000000      7.28723199E+05             0             0          100.000000
        35           1.7500000      7.50156234E+05           285           285            5.000000
        36           1.8000000      7.71589269E+05             8           293            2.333333
        37           1.8500000      7.93022304E+05             2           295            1.666667
        38           1.9000000      8.14455340E+05             0           295            1.666667
        39           1.9500000      8.35888375E+05             0           295            1.666667
        40           2.0000000      8.57321410E+05             0           295            1.666667
        41           2.0500000      8.78754445E+05             0           295            1.666667
        42           2.1000000      9.00187481E+05             2           297            1.000000
        43           2.1500000      9.21620516E+05             3           300             .000000
Summary of preceding table follows:       Grouped data     Ungrouped data
                                 Mean = 1.73333333E+00     1.71151182E+00
                             Variance = 2.48885173E-03     2.95964884E-03
                   Standard deviation = 4.98883927E-02     5.44026547E-02

Statistical output of branch voltage   0.4287E+06 |-1            X0003BX0003CX0003AX0003BX0003CX0003A

4 ) -------------------------------------------------------------------------------------------------------------------------------
Statistical distribution of peak voltage  for branch  "X0003A"  to  "X0003B".   Base voltage  for per unit output = 4.28660705E+05
  Interval             voltage         voltage  in     Frequency    Cumulative               Per cent
    number         in per unit      physical units     (density)     frequency     .GE. current value
        50           2.5000000      1.07165176E+06             0             0          100.000000
        51           2.5500000      1.09308480E+06           291           291            3.000000
        52           2.6000000      1.11451783E+06             1           292            2.666667
        53           2.6500000      1.13595087E+06             2           294            2.000000
        54           2.7000000      1.15738390E+06             3           297            1.000000
        55           2.7500000      1.17881694E+06             2           299             .333333
        56           2.8000000      1.20024997E+06             1           300             .000000
Summary of preceding table follows:       Grouped data     Ungrouped data
                                 Mean = 2.52950000E+00     2.51728039E+00
                             Variance = 7.57274247E-04     7.71150382E-04
                   Standard deviation = 2.75186164E-02     2.77695946E-02

5 ) -------------------------------------------------------------------------------------------------------------------------------
  SUMMARY   SUMMARY   SUMMARY   SUMMARY   SUMMARY   SUMMARY   SUMMARY   SUMMARY   SUMMARY   SUMMARY   SUMMARY   SUMMARY   SUMMARY
5 ) -------------------------------------------------------------------------------------------------------------------------------
A distribution of peak values among all output branches of the last data card that have the same base value follows.  This
statistical distribution is for the maximum of the peaks at all of these output branches having base  voltage  = 4.28660705E+05
  Interval             voltage         voltage  in     Frequency    Cumulative               Per cent
    number         in per unit      physical units     (density)     frequency     .GE. current value
        56           2.8000000      1.20024997E+06             0             0          100.000000
        57           2.8500000      1.22168301E+06           300           300             .000000
Summary of preceding table follows:       Grouped data     Ungrouped data
                                 Mean = 2.82500000E+00     2.80653122E+00
                             Variance = 1.52089415E-15     0.00000000E+00
                   Standard deviation = 3.89986429E-08     0.00000000E+00

Blank card ends statistical tabulation requests.  |BLANK STATISTICS

                                      Sample curve symbols : "A", "B", and "C"
                                      Theoretical curve symbol : "*"
                                      Common curve symbol : "X"

        Switch  "X0001B"  to  "X0002B"            Switch  "X0001A"  to  "X0002A"            Switch  "X0001C"  to  "X0002C"
1.32420000E+00   switchings per column          1.32420000E+00   switchings per column     1.32420000E+00   switchings per column
              Columns                                     Columns                                     Columns
          5   10   15   20   25   30                5   10   15   20   25   30                5   10   15   20   25   30
     +----+----+----+----+----+----+           +----+----+----+----+----+----+           +----+----+----+----+----+----+
    X                                         X                                         X
    X                                         X                                         X
    X                                         X                                         X
    *A                                        X                                         X
    |*A                                       B*                                        |*C
    |A*                                       | X                                       | X
    |   X                                     | B *                                     |   *  C
    |       X                                 |       X                                 |     C *
    |      A    *                             |           *B                            |       C   *
    |                 * A                     |                 *    B                  |                 *  C
    |                       *     A           |                       X                 |                       *    C
    |                      A    *             |                           *   B         |                    C      *
    |  5.5000E-02                 *     A     |  5.5000E-02              B  *           |  5.5000E-02                 *     C
    |                           *      A      |                         B *             |                         C *
    |                  A    *                 |                       * B               |                       *     C
    |               A *                       |                B*                       |            C    *
    |         A *                             |          B*                             |        C  *
    |       * A                               |       X                                 |       *  C
    |  A*                                     |   X                                     | C *
    | *A                                      | X                                       | X
    |X                                        |X                                        |*C
    X                                         *B                                        X
    X                                         X                                         X
    X                                         X                                         *C
    X                                         X                                         X
   Time (scale = 3.33333333E-04  Sec/line)   Time (scale = 3.33333333E-04  Sec/line)   Time  (scale = 3.33333333E-04  Sec/line)

        Switch  "X0003C"  to  "XX0009"            Switch  "X0001B"  to  "X0002B"            Switch  "X0001A"  to  "X0002A"
1.32420000E+00   switchings per column          1.32420000E+00   switchings per column     1.32420000E+00   switchings per column
              Columns                                     Columns                                     Columns
          5   10   15   20   25   30                5   10   15   20   25   30                5   10   15   20   25   30
     +----+----+----+----+----+----+           +----+----+----+----+----+----+           +----+----+----+----+----+----+
    X                                         X                                         X
    X                                         X                                         X
    X                                         X                                         X
    *A                                        X                                         * C
    |X                                        |X                                        |*C
    | *A                                      | X                                       | X
    |  A*                                     |  B*                                     |   X
    |      A*                                 |    B  *                                 |     C *
    |         A *                             |           *  B                          |          C*
    |                 * A                     |                B*                       |                 X
    |                       *     A           |                       *    B            |                       X
    |                           *    A        |                           *B            |                           * C
    |  1.0000E-02                 *A          |  7.0000E-01                 *   B       |  7.0000E-01                C*
    |                           *   A         |                           *  B          |                           *  C
    |                A      *                 |                   B   *                 |                    C  *
    |                 * A                     |            B    *                       |                 X
    |           X                             |         B *                             |           * C
    |     A *                                 |     B *                                 |       X
    A   *                                     |   *  B                                  |   *C
    A *                                       | X                                       C *
    A*                                        |*B                                       |*C
    *A                                        *B                                        X
    X                                         X                                         X
    X                                         *B                                        X
    X                                         X                                         X
   Time (scale = 3.33333333E-04  Sec/line)   Time (scale = 3.33333333E-04  Sec/line)   Time  (scale = 3.33333333E-04  Sec/line)

   Switch  "X0001C"  to  "X0002C"
     1.32420000E+00   switchings per column
              Columns
          5   10   15   20   25   30
     +----+----+----+----+----+----+
    X
    X
    *A
    X
    |X
    |A*
    | A *
    |       X
    |           *    A
    |          A      *
    |                       *    A
    |                         A *
    |  7.0000E-01                A*
    |                          A*
    |                       X
    |                 *  A
    |           *       A
    |    A  *
    |   X
    A *
    A*
    *A
    X
    *A
    X
   Time (scale = 3.33333333E-04  Sec/line)
 .... Questionable Kolmogorov-Smirnov test result = 4.79983461E-01
 .... Questionable Kolmogorov-Smirnov test result = 8.61125218E-01
 .... Questionable Kolmogorov-Smirnov test result = 6.22920778E-01
 .... Questionable Kolmogorov-Smirnov test result = 8.70941508E-02
 .... Questionable Kolmogorov-Smirnov test result = 7.08509700E-01
 .... Questionable Kolmogorov-Smirnov test result = 9.61921384E-01
 .... Questionable Kolmogorov-Smirnov test result = 7.92096056E-01

Actual List Sizes for the preceding solution follow.       11-Nov-18  11.00.00
   Size  1-10:    27    26    38     3   138    13    42  5310     0     0
   Size 11-20:     0     7 -9999 -9999 -9999     0     0     0    23  2972
   Size 21-30:    36   180 14783     0 -9999     9 -9999 -9999 -9999     0
Seconds for overlays  1-5  :     0.000     0.000     0.000  -- (CP: Wait; Real)
Seconds for overlays  6-11 :     0.000     0.000     0.000
Seconds for overlays 12-15 :     0.000     0.000     0.000
Seconds for time-step loop :     0.000     0.000     0.000
Seconds after DELTAT-loop  :     0.000     0.000     0.000
                               ---------------------------
                   Totals  :     0.000     0.000     0.000

