   ---   55   cards of disk file read into card cache cells  1   onward.
 <===> Done with  "/"-card sorting by data class.    Remember that the source file appears different from interpreted input data.
Alternative Transients Program (ATP),  F77 GNU Linux or DOS.  All rights reserved by Can/Am user group of Portland, Oregon, USA.
 Date (dd-mth-yy) and time of day (hh.mm.ss) = 11-Nov-18  11.00.00    Name of disk plot file, if any, is
Consult the 860-page ATP Rule Book of the Can/Am EMTP User Group in Portland,  Oregon, USA.  Source code date is
Total size of LABCOM tables = 16446853 INTEGER words.  31 VARDIM  List Sizes follow:  6002  10K  192K  900  420K  1200  15K
  120K  2250  3800  720  2K  72800  510  800K  800  90  254  800K  100K  3K  15K  192K  120  45K  260K  600  210K  1100  19  200K
--------------------------------------------------+--------------------------------------------------------------------------------
Descriptive interpretation of input data cards.   |  Input data card images are shown below, all 80 columns, character by character
                                                  0         1         2         3         4         5         6         7         8
                                                  012345678901234567890123456789012345678901234567890123456789012345678901234567890
--------------------------------------------------+--------------------------------------------------------------------------------
Comment card.   KOMPAR > 0.                       |C data:Caso0_ReEnergizacao_OTIMIZADA_SemControle.atp
Marker card preceding new EMTP data case.         |BEGIN NEW DATA CASE
Comment card.   KOMPAR > 0.                       |C $DUMMY, XYZ000
Misc. data.     1.000E-06   1.000E+00   0.000E+00 |   1.E-6      1.
Misc. data.  500  1  0  0  1  0  0  1  300  0     |     500       1       0       0       1       0       0       1     300
Statistics data.      1    1    0    0    1    0  |       1       1       0       0       1      -1                               0
Series R-L-C.   5.000E+00  7.500E-02  0.000E+00   |  X0001AX0007A                5.   75.                                         0
Series R-L-C.   5.000E+00  7.500E-02  0.000E+00   |  X0001BX0007B                5.   75.                                         0
Series R-L-C.   5.000E+00  7.500E-02  0.000E+00   |  X0001CX0007C                5.   75.                                         0
Series R-L-C.   2.000E+02  0.000E+00  0.000E+00   |  X0007AX0001A              200.                                               0
Series R-L-C.   2.000E+02  0.000E+00  0.000E+00   |  X0007BX0001B              200.                                               0
Series R-L-C.   2.000E+02  0.000E+00  0.000E+00   |  X0007CX0001C              200.                                               0
Series R-L-C.   1.321E+00  1.401E+00  0.000E+00   |  X0003BXX0008            1.32071401.3                                         0
Series R-L-C.   1.321E+00  1.401E+00  0.000E+00   |  X0003AXX0008            1.32071401.3                                         0
Series R-L-C.   1.321E+00  1.401E+00  0.000E+00   |  X0003CXX0008            1.32071401.3                                         0
Series R-L-C.   3.900E-01  4.138E-01  0.000E+00   |  XX0008                     .39 413.8                                         0
Series R-L-C.   3.000E+01  0.000E+00  0.000E+00   |  XX0009                     30.                                               0
Series R-L-C.   1.000E+03  0.000E+00  0.000E+00   |  X0002AX0010A              1.E3                                               0
Series R-L-C.   1.000E+03  0.000E+00  0.000E+00   |  X0002BX0010B              1.E3                                               0
Series R-L-C.   1.000E+03  0.000E+00  0.000E+00   |  X0002CX0010C              1.E3                                               0
Dynamic $INCLUDE uses fixed RAM cache to delay.   |$INSERT, C:\SimulacaoATP\1\EXT1.pch
J. Marti line, mode  1   parameters begin.        |-1X0010AX0005C                2.  0.00              -2 3
J. Marti line, mode  2   parameters begin.        |-2X0010BX0005A                2.  0.00              -2 3
J. Marti line, mode  3   parameters begin.        |-3X0010CX0005B                2.  0.00              -2 3
TR(1,1 )...  0.671-0.707-0.324                    |  0.67102882 -0.70710678 -0.32400803
TI(1,1 )...  0.000 0.000 0.003                    |  0.00000000  0.00000000  0.00341127
TR(2,1 )...  0.315 0.000 0.889                    |  0.31480489  0.00000000  0.88876566
TI(2,1 )... -0.018 0.000 0.010                    | -0.01839933  0.00000000  0.01048452
TR(3,1 )...  0.671 0.707-0.324                    |  0.67102882  0.70710678 -0.32400803
TI(3,1 )...  0.000 0.000 0.003                    |  0.00000000  0.00000000  0.00341127
Dynamic $INCLUDE uses fixed RAM cache to delay.   |$INSERT, C:\SimulacaoATP\1\OTIM2.pch
J. Marti line, mode  1   parameters begin.        |-1X0004AX0006C                2.  0.00              -2 3
J. Marti line, mode  2   parameters begin.        |-2X0004BX0006A                2.  0.00              -2 3
J. Marti line, mode  3   parameters begin.        |-3X0004CX0006B                2.  0.00              -2 3
TR(1,1 )...  0.671-0.707-0.324                    |  0.67102882 -0.70710678 -0.32400803
TI(1,1 )...  0.000 0.000 0.003                    |  0.00000000  0.00000000  0.00341127
TR(2,1 )...  0.315 0.000 0.889                    |  0.31480489  0.00000000  0.88876566
TI(2,1 )... -0.018 0.000 0.010                    | -0.01839933  0.00000000  0.01048452
TR(3,1 )...  0.671 0.707-0.324                    |  0.67102882  0.70710678 -0.32400803
TI(3,1 )...  0.000 0.000 0.003                    |  0.00000000  0.00000000  0.00341127
Dynamic $INCLUDE uses fixed RAM cache to delay.   |$INSERT, C:\SimulacaoATP\1\OTIM3.pch
J. Marti line, mode  1   parameters begin.        |-1X0005AX0004C                2.  0.00              -2 3
J. Marti line, mode  2   parameters begin.        |-2X0005BX0004A                2.  0.00              -2 3
J. Marti line, mode  3   parameters begin.        |-3X0005CX0004B                2.  0.00              -2 3
TR(1,1 )...  0.671-0.707-0.324                    |  0.67102882 -0.70710678 -0.32400803
TI(1,1 )...  0.000 0.000 0.003                    |  0.00000000  0.00000000  0.00341127
TR(2,1 )...  0.315 0.000 0.889                    |  0.31480489  0.00000000  0.88876566
TI(2,1 )... -0.018 0.000 0.010                    | -0.01839933  0.00000000  0.01048452
TR(3,1 )...  0.671 0.707-0.324                    |  0.67102882  0.70710678 -0.32400803
TI(3,1 )...  0.000 0.000 0.003                    |  0.00000000  0.00000000  0.00341127
Dynamic $INCLUDE uses fixed RAM cache to delay.   |$INSERT, C:\SimulacaoATP\1\EXT4.pch
J. Marti line, mode  1   parameters begin.        |-1X0006AX0003A                2.  0.00              -2 3
J. Marti line, mode  2   parameters begin.        |-2X0006BX0003B                2.  0.00              -2 3
J. Marti line, mode  3   parameters begin.        |-3X0006CX0003C                2.  0.00              -2 3
TR(1,1 )...  0.671-0.707-0.324                    |  0.67102882 -0.70710678 -0.32400803
TI(1,1 )...  0.000 0.000 0.003                    |  0.00000000  0.00000000  0.00341127
TR(2,1 )...  0.315 0.000 0.889                    |  0.31480489  0.00000000  0.88876566
TI(2,1 )... -0.018 0.000 0.010                    | -0.01839933  0.00000000  0.01048452
TR(3,1 )...  0.671 0.707-0.324                    |  0.67102882  0.70710678 -0.32400803
TI(3,1 )...  0.000 0.000 0.003                    |  0.00000000  0.00000000  0.00341127
Blank card ending branches.  IBR, NTOT = 26  27   |BLANK BRANCH
Switch.   5.50E-02  1.00E-03  0.00E+00  3.33E+03  |  X0001BX0002B      .055      .001               3333.STATISTICS               0
Switch.   5.50E-02  1.00E-03  0.00E+00  3.33E+03  |  X0001AX0002A      .055      .001               3333.STATISTICS               0
Switch.   5.50E-02  1.00E-03  0.00E+00  3.33E+03  |  X0001CX0002C      .055      .001               3333.STATISTICS               0
Switch.   1.00E-02  1.00E-03  0.00E+00  0.00E+00  |  X0003CXX0009       .01      .001                    STATISTICS               1
Switch.   7.00E-01  1.00E-03  0.00E+00  0.00E+00  |  X0001BX0002B        .7      .001                    STATISTICS               0
Switch.   7.00E-01  1.00E-03  0.00E+00  0.00E+00  |  X0001AX0002A        .7      .001                    STATISTICS               0
Switch.   7.00E-01  1.00E-03  0.00E+00  0.00E+00  |  X0001CX0002C        .7      .001                    STATISTICS               0
Switch.   0.00E+00  6.98E-01  0.00E+00  0.00E+00  |  X0002AX0010A                .698                                             0
Switch.   0.00E+00  6.98E-01  0.00E+00  0.00E+00  |  X0002BX0010B                .698                                             0
Switch.   0.00E+00  6.98E-01  0.00E+00  0.00E+00  |  X0002CX0010C                .698                                             0
Switch.   7.10E-01  0.00E+00  0.00E+00  0.00E+00  |  X0002AX0010A       .71                                                       0
Switch.   7.10E-01  0.00E+00  0.00E+00  0.00E+00  |  X0002BX0010B       .71                                                       0
Switch.   7.10E-01  0.00E+00  0.00E+00  0.00E+00  |  X0002CX0010C       .71                                                       0
Blank card ending switches.   KSWTCH = 13.        |BLANK SWITCH
Source.   4.29E+05  6.00E+01  0.00E+00 -1.00E+00  |14X0007A  428660.705       60.                                     -1.      100.
Source.   4.29E+05  6.00E+01 -1.20E+02 -1.00E+00  |14X0007B  428660.705       60.     -120.                           -1.      100.
Source.   4.29E+05  6.00E+01 -2.40E+02 -1.00E+00  |14X0007C  428660.705       60.     -240.                           -1.      100.
Blank card ends electric sources.  KCONST = 3     |BLANK SOURCE

     Total network loss  P-loss  by summing injections =   2.196225322124E+08

Card of names for time-step loop output.          |  X0003AX0003BX0003C
Output voltage differences for pairs of A6 names  |-5X0003BX0003CX0003AX0003BX0003CX0003A
Blank card ending requests for output variables.  |BLANK OUTPUT

Column headings for the  7   EMTP output variables follow.  These are divided among the 5 possible classes as follows ....
  First  6     output variables are electric-network voltage differences (upper voltage minus lower voltage);
  Next   1     output variables are branch currents (flowing from the upper node to the lower node);
   Step      Time      X0003A     X0003B     X0003C     X0003B     X0003A     X0003C     X0003C
                                                        X0003C     X0003B     X0003A     XX0009
 ***      Phasor I(0) = -2.1490959E+01                     Switch  "X0001B"  to  "X0002B"  closed in the steady-state.
 ***      Phasor I(0) =  3.4251471E+02                     Switch  "X0001A"  to  "X0002A"  closed in the steady-state.
 ***      Phasor I(0) = -3.1818100E+02                     Switch  "X0001C"  to  "X0002C"  closed in the steady-state.
 ***                    Switch  "X0002A"  to  "X0010A"  closed  after  0.00000000E+00  sec.
 ***                    Switch  "X0002B"  to  "X0010B"  closed  after  0.00000000E+00  sec.
 ***                    Switch  "X0002C"  to  "X0010C"  closed  after  0.00000000E+00  sec.
      0       0.0  88291.1458 -203167.74 111332.882 -314500.63 291458.889 23041.7366        0.0
    500     .5E-3  120497.472  -201396.8 78446.7779 -279843.57 321894.269 -42050.695        0.0
   1000     .1E-2  148962.441 -192781.86 42305.7797 -235087.64 341744.303 -106656.66        0.0
   1500     .0015  171390.764 -177594.77 4763.93607 -182358.71 348985.536 -166626.83        0.0
   2000      .002  554537.828 -158230.68 -455354.43 297123.751 712768.507 -.100989E7        0.0
   2500     .0025  579581.075 -24816.508 -588499.82 563683.312 604397.583 -.116808E7        0.0
   3000      .003  534426.702 106000.633 -683641.87 789642.504 428426.069 -.121807E7        0.0
   3500     .0035  452491.714 222741.475 -721313.48 944054.956 229750.239 -.117381E7        0.0
   4000      .004  348665.933 349773.787 -693329.78 .1043104E7 -1107.8536   -.1042E7        0.0
   4500     .0045  227397.408 468438.163 -647949.91 .1116388E7 -241040.75 -875347.32        0.0
   5000      .005  78410.8835 557361.689 -577522.12 .1134884E7 -478950.81 -655933.01        0.0
   5500     .0055  -197580.85 616330.497 -370388.86 986719.353 -813911.35   -172808.        0.0
   6000      .006  -437896.95 609206.004 -140602.56 749808.567  -.10471E7 297294.391        0.0
   6500     .0065  -579353.03 563746.315 62774.7353  500971.58  -.11431E7 642127.769        0.0
   7000      .007   -656328.3 489488.913  230409.58 259079.333 -.114582E7 886737.875        0.0
   7500     .0075  -690744.53 395234.006  344328.36 50905.6459 -.108598E7 .1035073E7        0.0
   8000      .008  -686834.52 278334.656 419908.293 -141573.64 -965169.17 .1106743E7        0.0
   8500     .0085  -648436.03 144591.739  471462.42 -326870.68 -793027.77 .1119898E7        0.0
   9000      .009  -544717.15 12679.6661 466712.462  -454032.8 -557396.82  .101143E7        0.0
   9500     .0095   -389386.6 -99611.609 410648.667 -510260.28   -289775. 800035.272        0.0
  10000       .01  -244295.54 -182200.86 345796.439  -527997.3 -62094.677 590091.975        0.0
 ***                                                             Close switch  "X0003C"  to  "XX0009"  after  1.00010000E-02  sec.
  10500     .0105  -211075.09 -323296.92 29703.2662 -353000.18 112221.827 240778.356 990.108874
  11000      .011  -107190.99 -357934.98 26915.1625 -384850.14  250743.99 134106.154 897.172082
  11500     .0115  -30739.698 -386554.45 26262.3263 -412816.78 355814.755 57002.0243 875.410878
  12000      .012  18080.1263 -410314.63 28700.1917 -439014.82 428394.758 10620.0653 956.673055
  12500     .0125  48912.4064 -412554.55 31098.8815 -443653.43 461466.959 -17813.525 1036.62938
  13000      .013  59325.5703   -413934. 34214.9206 -448148.92 473259.568  -25110.65 1140.49735
  13500     .0135  17843.5379 -427656.48 38564.8166  -466221.3  445500.02 20721.2787 1285.49389
  14000      .014  -46446.807 -515948.95 52525.5024 -568474.45 469502.144 98972.3094 1750.85008
  14500     .0145  32575.3805 -483936.62 63845.8157 -547782.43 516511.999 31270.4353 2128.19386
  15000      .015  123540.581 -435406.71 67296.0785 -502702.79 558947.291 -56244.503 2243.20262
  15500     .0155   206439.56 -393239.01 61683.8254 -454922.84 599678.571 -144755.73 2056.12751
  16000      .016  297824.815 -346541.24 51960.1658 -398501.41 644366.058 -245864.65 1732.00553
  16500     .0165   399797.26 -282441.46 40430.7317 -322872.19 682238.716 -359366.53 1347.69106
  17000      .017  506795.043 -194263.86 27011.9218 -221275.79 701058.907 -479783.12 900.397394
  17500     .0175   600155.83 -81994.504 12817.5958   -94812.1 682150.334 -587338.23 427.253192
  18000      .018  653337.817 49220.7481 3262.89943 45957.8487 604117.069 -650074.92 108.763314
  18500     .0185  669909.014 189972.403 -1044.4411 191016.844 479936.611 -670953.45 -34.814704
  19000      .019  644041.487 321322.642 -7000.1284 328322.771 322718.844 -651041.62 -233.33761
  19500     .0195  578166.361 440757.213 -15019.713 455776.926 137409.149 -593186.07 -500.65709
  20000       .02   472739.11 540869.947 -24113.074 564983.021 -68130.836 -496852.18 -803.76914
  20500     .0205  335899.043 614947.701 -33241.696 648189.397 -279048.66 -369140.74 -1108.0565
  21000      .021  179172.997 657518.693 -41945.384 699464.077  -478345.7 -221118.38 -1398.1795
  21500     .0215  12231.7127 658998.928 -49723.801  708722.73 -646767.22 -61955.514   -1657.46
  22000      .022  -154891.77 616389.442  -54750.01 671139.453 -771281.21 100141.757 -1825.0003
  22500     .0225   -301178.8 546971.654 -56346.564 603318.218 -848150.46 244832.238 -1878.2188
  23000      .023  -415138.61  463756.15 -54962.336 518718.486 -878894.76 360176.277 -1832.0779
  23500     .0235  -496131.47 369219.419 -51728.143 420947.561 -865350.88 444403.323 -1724.2714
  24000      .024  -546026.81  265734.23 -47260.166 312994.396 -811761.04 498766.646 -1575.3389
  24500     .0245  -566935.47 158635.427 -41692.458 200327.886  -725570.9 525243.016 -1389.7486
  25000      .025  -561887.54 55487.4414 -35203.603 90691.0442 -617374.98 526683.938 -1173.4534
  25500     .0255  -537050.37 -38333.515 -27986.266 -10347.249 -498716.86 509064.106 -932.87554
  26000      .026  -499581.07 -121511.14 -19596.208 -101914.94 -378069.93 479984.867 -653.20692
  26500     .0265   -454408.2 -194969.65 -9528.5285 -185441.12 -259438.55 444879.675 -317.61762
  27000      .027  -405156.11 -260805.95 1826.45784 -262632.41 -144350.16 406982.569  60.881928
  27500     .0275  -353415.99 -319989.64 13589.4035 -333579.05 -33426.347 367005.394 452.980116
  28000      .028  -299272.67 -372853.62 24948.2292 -397801.85 73580.9481 324220.904 831.607639
  28500     .0285  -241657.67 -419523.07 35294.4935 -454817.57 177865.406 276952.162 1176.48312
  29000      .029  -178434.05 -459768.81  44116.193 -503885.01 281334.768  222550.24 1470.53977
  29500     .0295  -108207.88 -493086.21 50982.0767 -544068.29 384878.327 159189.962 1699.40256
  30000       .03  -30885.949 -517901.42 55740.0418 -573641.46 487015.471  86625.991 1858.00139
  30500     .0305  53655.3625 -530277.17 58475.7886 -588752.96 583932.531 4820.42611 1949.19295
  31000      .031  145087.413 -525080.28 59325.0861 -584405.37 670167.694 -85762.327 1977.50287
  31500     .0315  241013.751 -498395.51 58341.5045 -556737.02 739409.263 -182672.25 1944.71682
  32000      .032  336730.006 -448587.86 55516.9159 -504104.77 785317.863 -281213.09 1850.56386
  32500     .0325   426170.43  -375964.6 50877.6055 -426842.21 802135.033 -375292.82 1695.92018
  33000      .033  503131.896 -282306.61 44503.8246 -326810.43 785438.506 -458628.07 1483.46082
  33500     .0335  561944.186 -171087.29  36532.093 -207619.38 733031.474 -525412.09 1217.73643
  34000      .034  597818.849 -47708.534 27237.1306 -74945.665 645527.383 -570581.72 907.904354
  34500     .0345  607299.017 80877.2002 17051.8596 63825.3407 526421.817 -590247.16 568.395319
  35000      .035  588728.621 206959.989 6453.87102 200506.118 381768.633 -582274.75 215.129034
  35500     .0355   542619.36 323095.889 -4140.2107   327236.1 219523.471 -546759.57 -138.00702
  36000      .036  471622.012  422901.15 -14386.679 437287.829 48720.8623 -486008.69 -479.55597
  36500     .0365  380125.096 501471.647 -23984.033  525455.68 -121346.55 -404109.13 -799.46775
  37000      .037  273669.412 555612.939 -32663.185 588276.124 -281943.53  -306332.6 -1088.7728
  37500     .0375  158234.125 583874.764 -40195.036   624069.8 -425640.64 -198429.16 -1339.8345
  38000      .038  39673.4539 586487.211 -46374.582 632861.793 -546813.76 -86048.036 -1545.8194
  38500     .0385  -76536.354 565303.828 -50996.826 616300.654 -641840.18 25539.5278 -1699.8942
  39000      .039   -185495.1 523553.367 -53859.156 577412.523 -709048.46 131635.941 -1795.3052
  39500     .0395  -283190.59 465253.766  -54793.48 520047.246 -748444.36 228397.112 -1826.4493
  40000       .04  -366761.32 394516.718 -53703.522  448220.24 -761278.04   313057.8 -1790.1174
  40500     .0405  -434490.47 315056.962 -50584.501 365641.464 -749547.43  383905.97   -1686.15
  41000      .041  -485541.39 229989.311 -45528.723 275518.034  -715530.7 440012.669 -1517.6241
  41500     .0415   -519659.6 141786.733 -38722.582 180509.315 -661446.33 480937.014 -1290.7527
  42000      .042  -536980.01   52306.79 -30428.483 82735.2725  -589286.8  506551.53 -1014.2828
  % % % % % %   Suspended simulation;  plot data space exhausted;  SPY SPACE is required.   LIMBUF =  340000.
  % % % % % %   Suspended simulation;  plot data space exhausted;  SPY SPACE is required.   LIMBUF =  340000.
  +++  Time-sharing disabled.   Send  user-keyed interrupt to silence alarm.
   Current values.  INDBUF  INDBEG  LIMBUF  MFLUSH  NUMDCD  KCARD1  KCARD2
                    339994      50  340000    1000      46       1      50
Plot timespan now in memory (in sec) = 0.00000000E+00   4.24930000E-02
   ++++  Begin plot-data copy from memory to disk.   MFLUSH, INDBUF, N4, Tbeg,  Tend = 1001  339994       1  -1.00000E+00
1.00000E+19
  42500     .0425  -537901.82 -37099.862 -20957.734 -16142.128 -500801.95 516944.082 -698.59115
  43000      .043   -522971.7 -125364.89 -10652.023 -114712.86 -397606.82 512319.681 -355.06742
  43500     .0435  -492780.16 -211380.74 122.481615 -211503.23 -281399.41  492902.64 4.08272051
  44000      .044   -447931.6 -293684.21 10979.9818 -304664.19 -154247.39 458911.583 365.999394
  44500     .0445  -389127.79 -370260.05 21526.9111 -391786.96 -18867.737   410654.7 717.563702
  45000      .045  -317330.86  -438517.7 31377.1228 -469894.83 121186.846 348707.981 1045.90409
  45500     .0455  -233944.11 -495437.21 40165.5327 -535602.74 261493.102 274109.638 1338.85109
  46000      .046  -140949.91 -537833.57 47562.4057 -585395.98 396883.667 188512.311 1585.41352
  46500     .0465    -40960.4 -562671.71 53290.7448 -615962.46  521711.31 94251.1451 1776.35816
  47000      .047  62822.8586 -567396.43 57143.3225 -624539.75 630219.284  -5679.536 1904.77742
  47500     .0475  166713.696 -550268.58 58993.2712 -609261.85 716982.279 -107720.43 1966.44237
  48000      .048  266694.571 -510675.88 58795.7257 -569471.61 777370.455 -207898.85 1959.85752
  48500     .0485  358624.657 -449348.47 56583.0209 -505931.49 807973.131 -302041.64  1886.1007
  49000      .049  438500.119 -368415.25 52456.7818 -420872.03 806915.366 -386043.34 1748.55939
  49500     .0495  502730.912 -271289.96 46578.8511 -317868.81 774020.875 -456152.06 1552.62837
  50000       .05  548386.074  -162423.8 39162.8741 -201586.68 710809.878  -509223.2 1305.42914
  50500     .0505  573377.507 -46971.015 30467.6601 -77438.675 620348.522 -542909.85 1015.58867
  51000      .051  576575.961 69596.4706 20791.2605 48805.2101 506979.491  -555784.7 693.042018
  51500     .0515  557862.733 181894.051 10463.6853 171430.366 375968.682 -547399.05 348.789511
  52000      .052  518117.238 285008.218   -162.492  285170.71  233109.02 -518279.73 -5.4163999
  52500     .0525  459139.388 374809.603  -10722.91 385532.513 84329.7843  -469862.3 -357.43032
  53000      .053  383514.273 448155.114 -20852.986   469008.1 -64640.842 -404367.26 -695.09953
  53500     .0535  294436.327 502963.625 -30200.301 533163.926  -208527.3 -324636.63 -1006.6767
  54000      .054  195515.148 538177.073 -38437.381 576614.454 -342661.92 -233952.53  -1281.246
  54500     .0545  90585.0223 553637.332  -45273.69 598911.021 -463052.31 -135858.71  -1509.123
  55000      .055  -16465.688 549914.137 -50465.761 600379.899 -566379.83 -34000.073  -1682.192
  55500     .0555   -121838.5 528115.139 -53825.335 581940.474 -649953.64  68013.165 -1794.1778
  56000      .056  -221942.27 489704.906 -55225.983 544930.889 -711647.17 166716.285 -1840.8661
  56500     .0565  -313485.95 436358.531 -54608.449  490966.98 -749844.48 258877.497 -1820.2816
  57000      .057  -393548.13 369871.132 -51984.405 421855.537 -763419.26 341563.726 -1732.8135
 ***                                                             Open  switch  "X0001B"  to  "X0002B"  after  5.70430000E-02  sec.
  57500     .0575  -459627.01 292131.506 -47438.031 339569.537 -751758.51 412188.976 -1581.2677
  58000      .058  -509678.02  205150.59 -41124.812 246275.402 -714828.61 468553.207 -1370.8271
  58500     .0585  -542147.27 111122.261 -33267.082 144389.344 -653269.53 508880.187 -1108.9027
  59000      .059  -561919.63 27720.1525 -24840.764  52560.917 -589639.78 537078.866 -828.02548
 ***                                                             Open  switch  "X0001A"  to  "X0002A"  after  5.92640000E-02  sec.
  59500     .0595  -558937.63 -36469.981 -15348.492 -21121.489 -522467.65 543589.137  -511.6164
  60000       .06  -533244.13 -97490.026  -4703.593 -92786.433  -435754.1 528540.533 -156.78643
 ***                                                             Open  switch  "X0001C"  to  "X0002C"  after  6.01790000E-02  sec.
  60500     .0605  -489965.94 -160286.78 6137.44122 -166424.22 -329679.16 496103.384 204.581374
  61000      .061  -434190.57 -223909.29 17037.1001 -240946.39 -210281.28 451227.674 567.903336
  61500     .0615  -400144.05 -284583.78 28723.7305 -313307.51 -115560.27 428867.779 957.457683
  62000      .062  -345474.38 -343299.41 36706.5763 -380005.99 -2174.9673 382180.953 1223.55254
  62500     .0625  -271668.36 -366724.19 36553.0047  -403277.2 95055.8333 308221.366 1218.43349
  63000      .063  -215486.93 -404445.37 30906.5169 -435351.88  188958.43 246393.452 1030.21723
  63500     .0635  -142829.29 -435468.75 24427.3487  -459896.1 292639.465 167256.636 814.244958
  64000      .064  -57910.602 -457991.56 17696.7626 -475688.32 400080.955  75607.365 589.892086
  64500     .0645  25843.3697 -471547.11 10477.5631 -482024.67 497390.476 -15365.807 349.252104
  65000      .065  95194.2455 -475087.82  3434.5822  -478522.4 570282.068 -91759.663 114.486073
  65500     .0655  165197.781 -482827.94 -3606.0482 -479221.89 648025.723 -168803.83 -120.20161
  66000      .066  192986.164  -499186.9 -8549.6353 -490637.26  692173.06  -201535.8 -284.98784
  66500     .0665  229134.987  -505822.4 -9040.5372 -496781.87 734957.391 -238175.52 -301.35124
  67000      .067  283740.923 -493649.25  -7902.815 -485746.43 777390.169 -291643.74 -263.42717
  67500     .0675  343881.472 -468935.43 -5682.6273 -463252.81 812816.904  -349564.1 -189.42091
  68000      .068  388780.826   -432550. -2232.9525 -430317.05 821330.829 -391013.78 -74.431751
  68500     .0685  424957.878 -385137.44 2334.52408 -387471.97  810095.32 -422623.35 77.8174695
  69000      .069  453268.169 -336638.87 7640.92449 -344279.79 789907.038 -445627.24 254.697483
  69500     .0695  458697.472  -282766.7 13189.1044 -295955.81 741464.174 -445508.37 439.636814
  70000       .07  479564.041  -216538.8 15896.0799 -232434.88 696102.845 -463667.96  529.86933
  70500     .0705  491020.385 -155558.73 15761.8481 -171320.58 646579.115 -475258.54 525.394938
  71000      .071  496856.676 -94458.988 14617.7062 -109076.69 591315.664 -482238.97 487.256872
  71500     .0715  487543.657 -20143.634 13174.2953 -33317.929 507687.291 -474369.36 439.143177
  72000      .072  473864.621 58196.8967 11000.7484 47196.1483 415667.724 -462863.87 366.691614
  72500     .0725  447384.258 132126.245 8240.10069 123886.145 315258.013 -439144.16 274.670023
  73000      .073  408449.612 203391.962 5191.95385 198200.008  205057.65 -403257.66 173.065128
  73500     .0735  361799.005 257630.508 1839.73527 255790.773 104168.497 -359959.27  61.324509
  74000      .074  306959.414 298505.288 -17.391616  298522.68 8454.12618 -306976.81 -.57972054
  74500     .0745  255669.768 338960.158 -596.49261 339556.651  -83290.39 -256266.26 -19.883087
  75000      .075   195288.37 387675.919 -809.86014 388485.779 -192387.55 -196098.23 -26.995338
  75500     .0755  133558.271 428396.315 -427.91638 428824.232 -294838.04 -133986.19 -14.263879
  76000      .076  65100.9095 463981.774 915.273133 463066.501 -398880.86 -64185.636 30.5091044
  76500     .0765  -2276.1275 491507.354 2894.39051 488612.964 -493783.48 5170.51801 96.4796837
  77000      .077   -68969.27  500820.49 5457.98328 495362.507 -569789.76 74427.2534 181.932776
  77500     .0775  -126249.09  502096.15  7693.8565 494402.293 -628345.24 133942.946 256.461883
  78000      .078  -181008.79 496065.653  8810.5446 487255.108 -677074.44  189819.33  293.68482
  78500     .0785  -240615.99 488967.733 9142.87168 479824.862 -729583.72 249758.861 304.762389
  79000      .079  -292587.69  472649.74  9291.1207 463358.619 -765237.43 301878.809 309.704023
  79500     .0795  -340954.48 455973.778 9154.91919 446818.859 -796928.26 350109.404 305.163973
  80000       .08  -380272.67  429008.44 8476.59165 420531.849 -809281.11 388749.265 282.553055
  80500     .0805  -410252.06 387969.556 7509.09305 380460.463 -798221.62 417761.153 250.303102
  81000      .081  -431323.73 335617.929 6238.51455 329379.414 -766941.66 437562.245 207.950485
  81500     .0815  -453448.59 275674.649 5122.81943 270551.829 -729123.24 458571.411 170.760648
  82000      .082  -470756.71 217294.735 4375.47535  212919.26 -688051.45 475132.189 145.849178
  82500     .0825  -475172.05 156537.946 3791.59435 152746.351 -631709.99 478963.641 126.386478
  83000      .083  -474252.69 99042.3209 3322.63172 95719.6892 -573295.01 477575.325 110.754391
  83500     .0835  -462117.03 35633.7057 3253.93912 32379.7666 -497750.74  465370.97 108.464637
  84000      .084  -437407.78 -31790.199 3679.50062   -35469.7 -405617.58 441087.282 122.650021
  84500     .0845  -405044.77 -102888.98 4558.12206  -107447.1  -302155.8 409602.895 151.937402
  % % % % % %   Suspended simulation;  plot data space exhausted;  SPY SPACE is required.   LIMBUF =  340000.
  % % % % % %   Suspended simulation;  plot data space exhausted;  SPY SPACE is required.   LIMBUF =  340000.
  +++  Time-sharing disabled.   Send  user-keyed interrupt to silence alarm.
   Current values.  INDBUF  INDBEG  LIMBUF  MFLUSH  NUMDCD  KCARD1  KCARD2
                    339994      50  340000    1001      46       1      50
Plot timespan now in memory (in sec) = 4.24919985E-02   8.49850000E-02
   ++++  Begin plot-data copy from memory to disk.   MFLUSH, INDBUF, N4, Tbeg,  Tend = 1002  339994       1  -1.00000E+00
1.00000E+19
  85000      .085  -372004.89 -168476.78 5596.67639 -174073.45 -203528.11 377601.564  186.55588
  85500     .0855  -333243.75 -227757.56  6249.6691 -234007.23 -105486.19 339493.422 208.322303
  86000      .086  -287891.21  -283303.3 6516.85777 -289820.16  -4587.913  294408.07 217.228592
  86500     .0865  -239791.12 -330526.51 6655.79412 -337182.31 90735.3975 246446.911 221.859804
  87000      .087   -181904.6 -374101.59 6726.26024 -380827.85 192196.994  188630.86 224.208675
  87500     .0875  -116472.53  -413053.7 6621.69852  -419675.4 296581.164 123094.232 220.723284
  88000      .088  -49894.295 -447894.99 6422.66007 -454317.65 398000.695 56316.9549 214.088669
  88500     .0885  10450.5685 -471096.36 5980.12218 -477076.48 481546.931 -4470.4463 199.337406
  89000      .089  68147.9562 -488048.47 5352.76494 -493401.23 556196.426 -62795.191 178.425498
  89500     .0895  123539.019 -496377.23 4752.80736 -501130.04 619916.252 -118786.21 158.426912
  90000       .09   177627.19 -494032.63 4186.13123 -498218.76 671659.818 -173441.06 139.537708
  90500     .0905   233933.69 -485351.45  3596.3821 -488947.83 719285.137 -230337.31 119.879403
  91000      .091  288393.907 -470675.92 3191.09506 -473867.02 759069.831 -285202.81 106.369835
  91500     .0915  336720.466 -448709.16  3118.6698 -451827.83 785429.622  -333601.8  103.95566
  92000      .092  372954.232 -415189.87 3221.60797 -418411.48   788144.1 -369732.62 107.386932
  92500     .0925  402356.803 -376613.53 3456.91446 -380070.44 778970.328 -398899.89 115.230482
  93000      .093  423596.598 -330048.82 3657.47637  -333706.3 753645.417 -419939.12 121.915879
  93500     .0935  439299.253 -278082.48 3707.05792 -281789.54 717381.733 -435592.19 123.568597
  94000      .094  451408.303 -224006.27 3703.21217 -227709.48 675414.575 -447705.09 123.440406
  94500     .0945  458064.776 -167204.41 3815.29357  -171019.7 625269.188 -454249.48 127.176452
  95000      .095  455555.971  -105640.9 3952.21633 -109593.12 561196.873 -451603.75 131.740544
  95500     .0955  440540.642 -39077.508 3989.22353 -43066.732 479618.151 -436551.42 132.974118
  96000      .096  418629.054 26144.3921 3924.96763 22219.4244 392484.662 -414704.09 130.832254
  96500     .0965  387167.431  91719.645 3747.09958 87972.5455 295447.786 -383420.33 124.903319
  97000      .097   351054.45 153602.294 3500.04723 150102.247 197452.156  -347554.4 116.668241
  97500     .0975  312607.803 210697.292 3264.61797 207432.674 101910.511 -309343.19 108.820599
  98000      .098  270880.682 263827.865 3088.85689 260739.008 7052.81734 -267791.83 102.961896
  98500     .0985  221484.339 315170.261 2950.10431 312220.157 -93685.922 -218534.23 98.3368103
  99000      .099   165431.33 363298.097 2888.28883 360409.808 -197866.77 -162543.04 96.2762942
  99500     .0995  107585.654 403933.638 2920.00822 401013.629 -296347.98 -104665.65 97.3336074
 100000       0.1  46347.4292 438349.439 3026.04943  435323.39 -392002.01  -43321.38 100.868314
 100500     .1005  -12839.379 462940.071 3143.01242 459797.058 -475779.45  15982.391 104.767081
 101000      .101  -68757.655 477885.869 3253.25984 474632.609 -546643.52 72010.9147 108.441995
 101500     .1015  -122586.73 484419.626 3399.92228 481019.703 -607006.35 125986.648 113.330743
 102000      .102  -177973.56 486226.512 3577.22947 482649.283 -664200.07 181550.789 119.240982
 102500     .1025  -230948.01  481520.68 3751.08572 477769.594 -712468.69 234699.091 125.036191
 103000      .103  -279161.19 468267.664 3893.82795 464373.836 -747428.86 283055.022 129.794265
 103500     .1035  -322921.94 447365.178 3992.13631 443373.042 -770287.12 326914.077  133.07121
 104000      .104  -358447.13 416208.843 4021.94873 412186.894 -774655.97 362469.078 134.064958
 104500     .1045  -385952.22 376282.023 4029.88839 372252.134 -762234.24 389982.104 134.329613
 105000      .105  -407061.39 330132.692 4054.45855 326078.233 -737194.09 411115.853 135.148618
 105500     .1055  -424702.78  282178.81 4040.18477 278138.625 -706881.59 428742.964 134.672826
 106000      .106  -434851.98 230146.429  3971.9926 226174.437 -664998.41 438823.976 132.399753
 106500     .1065  -437577.22 174348.728 3905.50858  170443.22 -611925.95 441482.728 130.183619
 107000      .107  -432158.64 115369.436 3860.77251 111508.664 -547528.08 436019.415 128.692417
 107500     .1075  -416926.38 51997.1885  3835.8866 48161.3019 -468923.57 420762.267 127.862887
 108000      .108  -393428.26 -13517.556 3856.52305 -17374.079 -379910.71 397284.784 128.550768
 108500     .1085  -364509.66 -77990.597 3895.27006 -81885.867 -286519.07 368404.934 129.842335
 109000      .109  -332597.09  -137946.8 3885.57714 -141832.38  -194650.3 336482.672 129.519238
 109500     .1095  -294467.41 -195657.83 3848.28178 -199506.12 -98809.579 298315.695 128.276059
 110000       .11  -251525.03 -249339.25 3816.60631 -253155.86  -2185.778 255341.638  127.22021
 110500     .1105  -202929.16 -299412.72 3771.26378 -303183.99 96483.5627 206700.423 125.708793
 111000      .111  -148817.06 -346429.46 3716.83134 -350146.29 197612.399 152533.888 123.894378
 111500     .1115  -91762.703 -388523.71  3680.4026 -392204.12 296761.011  95443.106 122.680087
 112000      .112  -35550.662 -422757.43 3631.74635 -426389.18 387206.767 39182.4086 121.058212
 112500     .1125  18601.5839 -447594.23 3527.64268 -451121.88 466195.819 -15073.941 117.588089
 113000      .113  73122.9385 -465280.66 3384.78463 -468665.44 538403.593 -69738.154 112.826154
 113500     .1135  126165.176 -474400.13 3217.27685  -477617.4 600565.302  -122947.9 107.242562
 114000      .114  178552.779 -476668.06 3036.16702 -479704.23 655220.837 -175516.61 101.205567
 114500     .1145  229495.978 -472485.79 2882.91009  -475368.7 701981.772 -226613.07 96.0970029
 115000      .115  276377.209  -460896.6  2787.6306 -463684.23  737273.81 -273589.58   92.92102
 115500     .1155  315600.002 -439806.55 2707.97523 -442514.53 755406.553 -312892.03 90.2658411
 116000      .116  347657.854 -409998.64 2603.02826 -412601.67 757656.491 -345054.83 86.7676085
 116500     .1165  374385.395 -373813.92 2480.69406 -376294.61 748199.314  -371904.7 82.6898019
 117000      .117  394730.041 -331030.81 2356.63081 -333387.44 725760.846 -392373.41 78.5543602
 117500     .1175  410053.925 -284042.75 2246.80991 -286289.56 694096.679 -407807.12 74.8936637
 118000      .118  419736.296 -233377.85 2177.51461 -235555.37 653114.149 -417558.78 72.5838204
 118500     .1185  421769.041  -178886.5 2158.38889 -181044.89 600655.539 -419610.65 71.9462964
 119000      .119  413705.778 -119469.14 2142.17305 -121611.32  533174.92  -411563.6 71.4057684
 119500     .1195  397754.868 -57603.572 2103.26709 -59706.839  455358.44  -395651.6 70.1089029
 120000       .12  375498.642 4727.75467 2052.06289 2675.69178 370770.887 -373446.58 68.4020964
 120500     .1205  347359.209 66829.4406 1996.94197 64832.4986 280529.768 -345362.27 66.5647322
 121000      .121  315173.782 126406.808 1945.07884 124461.729 188766.973  -313228.7 64.8359613
 121500     .1215  278646.581 183061.116 1925.18065 181135.936 95585.4645  -276721.4 64.1726882
 122000      .122  236550.596 236984.613 1948.12504 235036.488 -434.01761 -234602.47 64.9375015
 122500     .1225  187993.089 288776.329  1975.5061 286800.823 -100783.24 -186017.58 65.8502035
 123000      .123  136261.326  335572.88  1994.3078 333578.572 -199311.55 -134267.02 66.4769267
 123500     .1235  82649.5447 376360.992 2012.37412 374348.618 -293711.45 -80637.171 67.0791374
 124000      .124  28616.0873 410287.021 2029.47954 408257.541 -381670.93 -26586.608 67.6493181
 124500     .1245  -24099.336 436011.651 2054.15394 433957.497 -460110.99 26153.4899 68.4717979
 125000      .125  -75690.785 453928.029 2115.71696 451812.312 -529618.81 77806.5015 70.5238988
 125500     .1255  -127082.13 465101.064 2207.41265 462893.651  -592183.2 129289.547 73.5804217
 126000      .126  -178072.55 470108.388  2289.8919 467818.496 -648180.94  180362.44 76.3297301
 126500     .1265  -225447.84 466813.091 2357.93218 464455.159 -692260.93 227805.771 78.5977395
 127000      .127  -268542.91 455456.101 2419.09226 453037.009 -723999.01 270962.003 80.6364086
  % % % % % %   Suspended simulation;  plot data space exhausted;  SPY SPACE is required.   LIMBUF =  340000.
  % % % % % %   Suspended simulation;  plot data space exhausted;  SPY SPACE is required.   LIMBUF =  340000.
  +++  Time-sharing disabled.   Send  user-keyed interrupt to silence alarm.
   Current values.  INDBUF  INDBEG  LIMBUF  MFLUSH  NUMDCD  KCARD1  KCARD2
                    339994      50  340000    1002      46       1      50
Plot timespan now in memory (in sec) = 8.49839970E-02   1.27477000E-01
   ++++  Begin plot-data copy from memory to disk.   MFLUSH, INDBUF, N4, Tbeg,  Tend = 1003  339994       1  -1.00000E+00
1.00000E+19
 127500     .1275  -305843.77 435681.016 2470.61688 433210.399 -741524.79  308314.39  82.353896
 128000      .128  -336418.61 407537.894 2522.09669 405015.798 -743956.51 338940.711 84.0698896
 128500     .1285  -360937.63 372430.169 2592.88628 369837.283  -733367.8 363530.517 86.4295426
 129000      .129  -380745.58 332380.073  2663.8304 329716.243 -713125.65 383409.408 88.7943466
 129500     .1295  -395273.15 288037.444 2709.12907 285328.315 -683310.59 397982.274 90.3043024
 130000       .13  -402340.28 238422.879 2735.97145 235686.907 -640763.16 405076.252 91.1990484
 130500     .1305  -402131.39 184680.066 2753.00526  181927.06 -586811.46 404884.396 91.7668421
 131000      .131  -393883.32 126991.288 2758.24452 124233.043 -520874.61 396641.566 91.9414841
 131500     .1315  -377898.88 66432.8938 2762.82555 63670.0682 -444331.78  380661.71 92.0941849
 132000      .132  -355683.63 4959.30004 2778.55816 2180.74188 -360642.93 358462.185 92.6186052
 132500     .1325  -329164.63 -55056.407  2783.0417 -57839.448 -274108.22 331947.668 92.7680566
 133000      .133  -297792.39 -113269.33 2760.67336   -116030. -184523.06 300553.059 92.0224452
 133500     .1335  -260741.87  -169922.3 2721.48748 -172643.79 -90819.565 263463.354 90.7162495
 134000      .134  -218860.55 -223859.83 2672.56126 -226532.39 4999.27551 221533.114 89.0853755
 134500     .1345   -172256.7 -274879.26 2615.10393 -277494.37 102622.561 174871.806 87.1701308
 135000      .135  -122230.44 -321751.13 2561.72237 -324312.86 199520.692 124792.164 85.3907456
 135500     .1355    -70860.5 -362762.85 2516.15757 -365279.01  291902.35 73376.6573 83.8719191
 136000      .136  -20139.362 -396149.71  2453.2537 -398602.96 376010.349 22592.6157 81.7751233
 136500     .1365  30547.8705 -422459.91 2364.34254 -424824.25 453007.782 -28183.528 78.8114181
 137000      .137  81120.0446 -441968.49 2263.11822  -444231.6 523088.531 -78856.926 75.4372739
 137500     .1375  130708.363 -454334.22 2158.37468 -456492.59 585042.582 -128549.99 71.9458228
 138000      .138  178863.852 -459879.63 2055.50437 -461935.14 638743.486 -176808.35 68.5168123
 138500     .1385  224046.651 -457990.93 1967.29471 -459958.22 682037.576 -222079.36 65.5764905
 139000      .139  264299.832 -447788.48 1890.05269 -449678.53 712088.309 -262409.78 63.0017565
 139500     .1395  298384.229 -428781.14 1799.77405 -430580.91 727165.365 -296584.45 59.9924683
 140000       .14  327370.778 -402589.07 1695.26771 -404284.34 729959.852 -325675.51 56.5089238
 140500     .1405  351121.284 -369948.02  1591.4207 -371539.44   721069.3 -349529.86 53.0473568
 141000      .141  369415.113 -331559.96 1495.05033 -333055.01 700975.069 -367920.06 49.8350109
 141500     .1415  382100.607 -288356.59 1412.53269 -289769.12 670457.192 -380688.07 47.0844231
 142000      .142  388138.791 -240477.83 1354.73336 -241832.56 628616.622 -386784.06 45.1577788
 142500     .1425   386323.87 -187839.62 1311.21759 -189150.84 574163.494 -385012.65  43.707253
 143000      .143  376720.054 -131136.43 1260.57286   -132397. 507856.481 -375459.48 42.0190952
 143500     .1435  361051.798 -72567.596 1205.38038 -73772.976 433619.394 -359846.42 40.1793459
 144000      .144  339685.149 -13141.262 1157.52182 -14298.784 352826.412 -338527.63 38.5840607
 144500     .1445  313250.388 45890.9629 1121.32427 44769.6386 267359.425 -312129.06 37.3774756
 145000      .145  282119.064 103507.287 1104.18451 102403.102 178611.778 -281014.88 36.8061504
 145500     .1455  245975.209 159355.525 1113.70161 158241.823 86619.6845 -244861.51 37.1233868
 146000      .146  204477.527 213319.681 1134.11549 212185.566 -8842.1543 -203343.41 37.8038496
 146500     .1465  158862.608 264239.418 1148.02651 263091.392 -105376.81 -157714.58 38.2675502
 147000      .147  111179.421 310236.173 1160.37975 309075.793 -199056.75 -110019.04 38.6793251
 147500     .1475  62218.9675 350634.388 1180.08158 349454.307 -288415.42 -61038.886 39.3360525
 148000      .148  13059.4717 384496.684 1210.09345 383286.591 -371437.21 -11849.378 40.3364483
 148500     .1485  -35755.048 411448.075 1257.39306 410190.682 -447203.12 37012.4415  41.913102
 149000      .149  -84230.275 431662.123 1324.34927 430337.773  -515892.4 85554.6243 44.1449755
 149500     .1495  -132281.12 445479.505 1392.34152 444087.163 -577760.63 133673.463  46.411384
 150000       .15  -178218.15 452072.296 1449.16847 450623.127 -630290.45 179667.318 48.3056157
 150500     .1505  -220370.93 450606.743 1501.18417 449105.559 -670977.68 221872.119 50.0394725
 151000      .151  -258077.25 441217.192 1554.32382 439662.868 -699294.45 259631.577  51.810794
 151500     .1515  -290548.57 423869.034 1610.36093 422258.674  -714417.6 292158.929 53.6786975
 152000      .152   -317697.4 399199.956 1675.24196 397524.714 -716897.35 319372.639 55.8413985
 152500     .1525  -339872.93 368242.697 1746.83879 366495.858 -708115.63 341619.771 58.2279598
 153000      .153   -357148.9 331979.175 1807.09695 330172.078 -689128.08 358955.997  60.236565
 153500     .1535  -368191.33 290219.833 1849.58477 288370.248 -658411.16 370040.916 61.6528258
 154000      .154  -372298.81 243231.235 1881.90024 241349.334 -615530.05 374180.715 62.7300079
 154500     .1545  -369453.49  191863.55 1908.39573 189955.155 -561317.04 371361.889  63.613191
 155000      .155  -359691.35 136889.787 1931.26814 134958.519 -496581.14 361622.616 64.3756047
 155500     .1555  -343747.27  79656.673 1956.10535 77700.5676 -423403.95  345703.38 65.2035115
 156000      .156  -322644.74 21713.6552 1977.57313 19736.0821  -344358.4 324622.314 65.9191045
 156500     .1565  -296859.07 -35776.264 1980.37701 -37756.641 -261082.81 298839.451 66.0125671
 157000      .157  -265777.54 -92709.432 1963.70218 -94673.134 -173068.11 267741.247 65.4567394
 157500     .1575  -229703.27 -148341.05 1936.36993 -150277.42 -81362.217 231639.641 64.5456645
 158000      .158  -189285.84 -201738.28 1902.27604 -203640.56 12452.4428 191188.113 63.4092013
 158500     .1585  -145331.01 -251983.58 1864.61694 -253848.19 106652.569 147195.623  62.153898
 159000      .159  -99183.238 -297791.23 1828.06827  -299619.3 198607.996 101011.306  60.935609
 159500     .1595   -52269.74 -337868.42  1784.9421 -339653.36 285598.682 54054.6824 59.4980701
 160000       .16  -5170.4163 -371635.91 1723.96522 -373359.88 366465.496 6894.38148 57.4655075
 160500     .1605  42260.4074 -399330.34 1649.08308 -400979.42 441590.749 -40611.324  54.969436
 161000      .161  89268.9995 -420552.64 1569.53537 -422122.18 509821.641 -87699.464 52.3178458
 161500     .1615  135033.537 -434989.76 1488.97859 -436478.73 570023.292 -133544.56 49.6326198
 162000      .162  178553.286 -442279.06 1411.36925 -443690.43 620832.349 -177141.92 47.0456417
 162500     .1625  218521.277 -441871.64 1339.69657 -443211.33 660392.913 -217181.58 44.6565524
 163000      .163  253781.566  -433352.1 1264.86267 -434616.97 687133.669  -252516.7 42.1620891
 163500     .1635  284236.896  -417199.8 1179.69403 -418379.49 701436.694  -283057.2 39.3231345
 164000      .164  310139.315 -394344.38 1090.97249 -395435.35 704483.695 -309048.34 36.3657498
 164500     .1645  331020.654 -365156.06 1006.98494 -366163.04  696176.71 -330013.67 33.5661646
 165000      .165  346501.159   -330171. 930.810801 -331101.82 676672.163 -345570.35 31.0270267
 165500     .1655  356023.678 -289775.43 866.251608 -290641.69 645799.113 -355157.43 28.8750536
 166000      .166   358918.97   -244247. 813.501138 -245060.51 603165.974 -358105.47 27.1167046
 166500     .1665  354866.505 -194059.15  762.39888 -194821.55 548925.657 -354104.11  25.413296
 167000      .167  344625.745 -140553.73 708.842917 -141262.57 485179.474  -343916.9 23.6280972
 167500     .1675  328928.417 -85098.644  660.34347 -85758.988 414027.061 -328268.07  22.011449
 168000      .168  307980.811 -28573.299 623.127929 -29196.427  336554.11 -307357.68  20.770931
 168500     .1685  282085.603 28065.2569 599.148716 27466.1082 254020.346 -281486.45 19.9716239
 169000      .169   251343.34 84126.5683 590.948894 83535.6194 167216.772 -250752.39 19.6982965
 169500     .1695  215833.993 139041.966  595.33771 138446.628 76792.0269 -215238.65 19.8445903
  % % % % % %   Suspended simulation;  plot data space exhausted;  SPY SPACE is required.   LIMBUF =  340000.
  % % % % % %   Suspended simulation;  plot data space exhausted;  SPY SPACE is required.   LIMBUF =  340000.
  +++  Time-sharing disabled.   Send  user-keyed interrupt to silence alarm.
   Current values.  INDBUF  INDBEG  LIMBUF  MFLUSH  NUMDCD  KCARD1  KCARD2
                    339994      50  340000    1003      46       1      50
Plot timespan now in memory (in sec) = 1.27476007E-01   1.69969000E-01
   ++++  Begin plot-data copy from memory to disk.   MFLUSH, INDBUF, N4, Tbeg,  Tend = 1004  339994       1  -1.00000E+00
1.00000E+19
 170000       .17  176101.643 192030.464 601.736617 191428.727 -15928.821 -175499.91 20.0578872
 170500     .1705  133579.934 241634.403 608.319672 241026.083 -108054.47 -132971.61 20.2773224
 171000      .171  89333.9267 286742.308 622.011603 286120.297 -197408.38 -88711.915 20.7337201
 171500     .1715  44033.0224 326666.332 646.631393 326019.701 -282633.31 -43386.391 21.5543798
 172000      .172  -1663.2697 360791.265 682.890061 360108.375 -362454.53 2346.15973  22.763002
 172500     .1725  -47346.149  388838.97 731.655591 388107.315 -436185.12 48077.8048 24.3885197
 173000      .173  -92618.051 410675.483 786.886665 409888.596 -503293.53 93404.9375 26.2295555
 173500     .1735  -136578.91 425919.812 838.717998 425081.094 -562498.72 137417.628 27.9572666
 174000      .174  -177768.56 433762.921 887.270364  432875.65 -611531.48 178655.829 29.5756788
 174500     .1745  -215335.86 433953.668 938.452089 433015.216 -649289.53 216274.312 31.2817363
 175000      .175  -248752.37 426565.998 994.208064  425571.79 -675318.36 249746.575 33.1402688
 175500     .1755  -277632.01  411843.52 1054.59697 410788.923 -689475.53 278686.607 35.1532322
 176000      .176  -301862.24 390335.457 1119.13944 389216.317 -692197.69 302981.375  37.304648
 176500     .1765  -321336.52 362684.267 1180.29326 361503.973 -684020.79 322516.816 39.3431087
 177000      .177  -335440.34 329192.643 1230.26871 327962.374 -664632.98 336670.605 41.0089569
 177500     .1775  -343343.72 289941.634 1271.27608 288670.358 -633285.35 344614.993 42.3758693
 178000      .178  -344907.12 245579.537 1308.57645 244270.961 -590486.66 346215.698  43.619215
 178500     .1785  -340241.93   196929.9 1343.35494 195586.545 -537171.83 341585.287 44.7784979
 179000      .179  -329669.67 144975.483 1375.88945 143599.594 -474645.16 331045.561 45.8629817
 179500     .1795  -313733.68 90871.7755 1404.99199 89466.7835 -404605.46 315138.674 46.8330663
 180000       .18  -292911.47 35725.2721 1423.21491 34302.0571 -328636.74 294334.687 47.4404971
 180500     .1805  -267161.12 -19823.097 1425.94069 -21249.038 -247338.02  268587.06 47.5313564
 181000      .181  -236482.56  -75221.78  1417.5436 -76639.323 -161260.78 237900.105 47.2514533
 181500     .1815  -201481.48 -129493.09 1403.05655 -130896.14 -71988.396 202884.541 46.7685516
 182000      .182  -162907.83 -181647.93 1383.75079 -183031.68 18740.1038  164291.58 46.1250262
 182500     .1825  -121687.67 -230623.99 1360.55984 -231984.55 108936.326 123048.227 45.3519947
 183000      .183  -78840.148 -275354.33 1331.96609 -276686.29 196514.179 80172.1136 44.3988696
 183500     .1835  -35171.966 -314995.37 1291.69198 -316287.07 279823.408 36463.6578 43.0563993
 184000      .184  9041.09359 -349249.56 1238.47008 -350488.03 358290.652 -7802.6235 41.2823361
 184500     .1845  53340.9889 -377815.19 1178.27414 -378993.47 431156.181 -52162.715 39.2758048
 185000      .185  96852.5645 -400142.62 1115.82775 -401258.45 496995.189 -95736.737 37.1942582
 185500     .1855  138678.722 -415776.56 1052.61919 -416829.18 554455.285  -137626.1 35.0873063
 186000      .186  177846.329 -424267.52 989.926041 -425257.45  602113.85  -176856.4 32.9975347
 186500     .1865  213442.612 -425275.97 925.740587 -426201.71 638718.578 -212516.87 30.8580196
 187000      .187  244927.626 -418803.59 855.165093 -419658.75 663731.213 -244072.46 28.5055031
 187500     .1875  272256.495 -405357.41 779.495016 -406136.91 677613.906   -271477. 25.9831672
 188000      .188  295138.271 -385332.46 705.145984 -386037.61 680470.732 -294433.13 23.5048661
 188500     .1885  313056.247 -358987.55 635.946609  -359623.5 672043.801  -312420.3 21.1982203
 189000      .189  325553.094 -326673.23 573.080283 -327246.31 652226.326 -324980.01 19.1026761
 189500     .1895  332185.567 -288753.69   517.2843 -289270.98  620939.26 -331668.28   17.24281
 190000       .19  332677.597  -245716.2 465.562178 -246181.76 578393.793 -332212.03 15.5187393
 190500     .1905  327216.773 -198399.18 414.015114 -198813.19 525615.951 -326802.76 13.8005038
 191000      .191  316357.437 -147971.15 365.245356  -148336.4 464328.589 -315992.19 12.1748452
 191500     .1915  300359.711 -95352.855  324.82963 -95677.685 395712.566 -300034.88 10.8276543
 192000      .192  279370.011 -41342.264 295.029311 -41637.293 320712.275 -279074.98 9.83431036
 192500     .1925  253592.511 13265.8237 276.078551 12989.7452 240326.687 -253316.43 9.20261836
 193000      .193   223269.24 67723.4082 267.360264 67456.0479 155545.832 -223001.88  8.9120088
 193500     .1935  188831.901 121221.036 264.630744 120956.405  67610.865 -188567.27 8.82102479
 194000      .194  151153.239 172674.584 264.638692 172409.945 -21521.345  -150888.6 8.82128974
 194500     .1945  111256.122 220913.422 270.277287 220643.145  -109657.3 -110985.85 9.00924289
 195000      .195  69809.7765 265134.117 285.531097 264848.586 -195324.34 -69524.245 9.51770325
 195500     .1955  27386.3569 304693.034 310.929014 304382.105 -277306.68 -27075.428 10.3643005
 196000      .196  -15455.445 339059.899 345.594127 338714.305 -354515.34 15801.0391 11.5198042
 196500     .1965   -58157.28  367816.03 387.397738 367428.632 -425973.31 58544.6782 12.9132579
 197000      .197  -100009.99  390538.11 431.252706 390106.857  -490548.1 100441.245 14.3750902
 197500     .1975   -139974.7 406618.342  474.67682 406143.665 -546593.05 140449.381 15.8225607
 198000      .198  -177102.81 415568.418 520.524113 415047.894 -592671.23 177623.331 17.3508038
 198500     .1985  -210844.63 417303.237 571.281479 416731.955 -628147.87 211415.912  19.042716
 199000      .199  -240776.15 411905.699 626.291915 411279.407 -652681.84 241402.437 20.8763972
 199500     .1995  -266564.24 399612.714 684.038229 398928.675 -666176.96 267248.282 22.8012743
 200000       0.2  -287919.54 380770.858 741.468767  380029.39  -668690.4 288661.007 24.7156256
 200500     .2005  -304438.47  355703.68 793.656868 354910.024 -660142.15  305232.13 26.4552289
 201000      .201   -315517.2 324589.756 839.443977 323750.312 -640106.96 316356.647 27.9814659
 201500     .2015  -320818.01  287819.27 881.899902  286937.37 -608637.28 321699.907 29.3966634
 202000      .202  -320385.13 246106.562 922.706558 245183.855 -566491.69 321307.838 30.7568853
 202500     .2025  -314391.07 200268.806 960.956812 199307.849 -514659.88 315352.026 32.0318937
 203000      .203  -303115.97 151216.628 995.254153 150221.373  -454332.6 304111.226 33.1751384
 203500     .2035  -286871.96 99882.0829 1022.54361 98859.5393 -386754.04 287894.502 34.0847869
 204000      .204  -265838.81 47073.9147 1039.14259 46034.7721 -312912.72 266877.951 34.6380865
 204500     .2045  -240081.88 -6561.4478 1045.72541 -7607.1733 -233520.43 241127.606 34.8575138
 205000      .205  -209989.61 -60187.049 1045.89457 -61232.944 -149802.56 211035.506 34.8631523
 205500     .2055   -176232.3 -112798.67 1041.20831 -113839.88 -63433.631 177273.511 34.7069436
 206000      .206  -139549.16 -163403.11  1031.2297 -164434.34  23853.951 140580.386 34.3743232
 206500     .2065  -100722.95 -211032.04 1015.15926  -212047.2  110309.09 101738.114  33.838642
 207000      .207  -60487.651 -254821.59 990.566389 -255812.16  194333.94 61478.2174 33.0188796
 207500     .2075  -19373.011 -294150.49 955.556446 -295106.04 274777.477 20328.5673 31.8518815
 208000      .208   22173.116  -328580.8 912.585135 -329493.38 350753.912 -21260.531 30.4195045
 208500     .2085  63427.4289 -357549.43 865.661971 -358415.09 420976.859 -62561.767  28.855399
 209000      .209  103534.115 -380474.22 816.378654  -381290.6 484008.333 -102717.74 27.2126218
 209500     .2095  141665.441 -396874.64 764.833328 -397639.48 538540.085 -140900.61 25.4944443
 210000       .21  177053.717 -406387.07  710.66438 -407097.73 583440.784 -176343.05 23.6888127
 210500     .2105  209085.894 -408835.87 652.059611 -409487.93 617921.766 -208433.83 21.7353204
 211000      .211  237423.881 -404341.45 588.670209 -404930.12 641765.336 -236835.21 19.6223403
 211500     .2115  261791.481  -393166.9 523.996891  -393690.9 654958.383 -261267.48  17.466563
 212000      .212   281720.74 -375479.53 461.795946 -375941.33  657200.27 -281258.94 15.3931982
  % % % % % %   Suspended simulation;  plot data space exhausted;  SPY SPACE is required.   LIMBUF =  340000.
  % % % % % %   Suspended simulation;  plot data space exhausted;  SPY SPACE is required.   LIMBUF =  340000.
  +++  Time-sharing disabled.   Send  user-keyed interrupt to silence alarm.
   Current values.  INDBUF  INDBEG  LIMBUF  MFLUSH  NUMDCD  KCARD1  KCARD2
                    339994      50  340000    1004      46       1      50
Plot timespan now in memory (in sec) = 1.69967994E-01   2.12461000E-01
   ++++  Begin plot-data copy from memory to disk.   MFLUSH, INDBUF, N4, Tbeg,  Tend = 1005  339994       1  -1.00000E+00
1.00000E+19
 212500     .2125  296739.383 -351490.22 403.275477  -351893.5 648229.604 -296336.11 13.4425159
 213000      .213   306476.68 -321519.18 348.530329 -321867.71 627995.858 -306128.15 11.6176776
 213500     .2135  310695.136 -286008.36 296.991693 -286305.36   596703.5 -310398.14  9.8997231
 214000      .214  309375.728 -245579.67 246.995372 -245826.66 554955.395 -309128.73 8.23317908
 214500     .2145  302778.438  -201095.5 198.988611 -201294.48 503873.934 -302579.45  6.6329537
 215000      .215  291167.791 -153438.87 156.461859 -153595.33  444606.66 -291011.33 5.21539531
 215500     .2155  274665.703 -103359.58 122.102257 -103481.68 378025.281  -274543.6 4.07007524
 216000      .216  253439.749 -51614.688 96.1598031 -51710.848 305054.437 -253343.59 3.20532677
 216500     .2165  227762.566 1003.37486 78.0709882 925.303874 226759.191 -227684.49 2.60236627
 217000      .217  198038.228 53654.8474 66.4534703 53588.3939 144383.381 -197971.77 2.21511568
 217500     .2175  164873.586 105401.283 59.3683117 105341.914 59472.3035 -164814.22 1.97894372
 218000      .218  129067.296 155196.779 57.3825161 155139.396 -26129.483 -129009.91 1.91275054
 218500     .2185  91316.2294  202131.02 63.1996887 202067.821 -110814.79  -91253.03 2.10665629
 219000      .219  52166.3072 245493.425 78.0161545 245415.409 -193327.12 -52088.291 2.60053848
 219500     .2195  12178.6788 284644.569 100.928013 284543.641 -272465.89 -12077.751 3.36426709
 220000       .22  -28040.269  319002.26 130.482792 318871.778 -347042.53 28170.7517 4.34942641
 220500     .2205  -67815.454 348022.413 164.414778 347857.998 -415837.87 67979.8687 5.48049259
 221000      .221  -106344.12 371145.565  200.57776 370944.987 -477489.69 106544.699 6.68592534
 221500     .2215   -142772.9 387833.876 239.502213 387594.374 -530606.78 143012.402 7.98340711
 222000      .222  -176464.82 397792.734 282.992881 397509.741 -574257.55 176747.808 9.43309604
 222500     .2225  -206964.81 400951.871 331.013508 400620.857 -607916.68 207295.823 11.0337836
 223000      .223  -233860.75 397350.923 381.919125 396969.004 -631211.68 234242.674 12.7306375
 223500     .2235  -256763.67  387121.51 433.750793  386687.76 -643885.18 257197.425 14.4583598
 224000      .224  -275279.97 370455.221 483.919645 369971.302 -645735.19 275763.886 16.1306548
 224500     .2245  -288962.71 347546.197 530.653701 347015.543  -636508.9 289493.361 17.6884567
 225000      .225  -297437.05 318664.384 574.802313 318089.581 -616101.44 298011.857 19.1600771
 225500     .2255  -300604.47 284325.089 617.726516 283707.363 -584929.56 301222.195 20.5908839
 226000      .226  -298544.21 245207.261 658.900235 244548.361 -543751.47 299203.108 21.9633412
 226500     .2265  -291398.42 202054.607 696.711983 201357.895 -493453.02 292095.128 23.2237328
 227000      .227  -279349.73 155648.733 729.403415  154919.33 -434998.46 280079.132 24.3134472
 227500     .2275  -262584.43 106766.596 754.878904 106011.717 -369351.02 263339.307 25.1626301
 228000      .228  -241257.45 56129.1793 772.429991 55356.7494 -297386.63 242029.879 25.7476664
 228500     .2285  -215645.06 4503.35252 783.670908 3719.68161 -220148.41  216428.73 26.1223636
 229000      .229  -186269.49 -47190.301  790.06023 -47980.361 -139079.19 187059.547  26.335341
 229500     .2295    -153762. -97991.666 791.283569  -98782.95 -55770.334 154553.283  26.376119
 230000       .23  -118769.84  -146979.1 786.371454 -147765.48 28209.2693 119556.207 26.2123818
 230500     .2305  -81929.443 -193297.86  774.27092 -194072.13 111368.417 82703.7137 25.8090307
 231000      .231  -43823.779 -236202.85  753.90011 -236956.75 192379.071 44577.6793 25.1300037
 231500     .2315  -4971.2808 -275086.31 725.894335 -275812.21 270115.032 5697.17514 24.1964778
 232000      .232  34011.8882 -309353.69 692.684782 -310046.37 343365.577 -33319.203 23.0894927
 232500     .2325  72362.6062 -338370.15 655.967708 -339026.12 410732.756 -71706.638 21.8655903
 233000      .233  109317.385 -361576.04 615.839842 -362191.88 470893.424 -108701.55 20.5279947
 233500     .2335  144181.593 -378537.82 572.015288 -379109.84 522719.413 -143609.58 19.0671763
 234000      .234  176353.616 -388966.84 524.096122 -389490.93 565320.451 -175829.52 17.4698707
 234500     .2345   205363.09 -392750.63 471.922943 -393222.55 598113.721 -204891.17 15.7307648
 235000      .235  230846.033 -389942.38 417.117004  -390359.5 620788.412 -230428.92 13.9039001
 235500     .2355  252386.459 -380624.26 362.421107 -380986.68 633010.718 -252024.04 12.0807036
 236000      .236   269524.72  -364894.7 309.382275 -365204.08 634419.421 -269215.34 10.3127425
 236500     .2365  281888.802 -342963.94 258.146888 -343222.09 624852.746 -281630.66 8.60489625
 237000      .237  289236.816 -315177.38 208.614191   -315386. 604414.201  -289028.2 6.95380637
 237500     .2375  291470.478  -282019.6 160.520265 -282180.12 573490.082 -291309.96 5.35067548
 238000      .238  288657.779 -244128.78 114.067452 -244242.85 532786.563 -288543.71 3.80224841
 238500     .2385  280967.118 -202245.82 71.0974606 -202316.92 483212.938 -280896.02 2.36991535
 239000      .239   268525.12 -157081.86 33.8844552 -157115.74 425606.979 -268491.24 1.12948184
 239500     .2395  251462.292 -109335.98 3.22473738  -109339.2 360798.269 -251459.07 .107491246
 240000       .24  230015.231 -59765.588 -21.242497 -59744.346 289780.819 -230036.47 -.70808324
 240500     .2405  204544.138 -9190.5688 -40.048536 -9150.5203 213734.706 -204584.19 -1.3349512
 241000      .241  175533.692 41512.1037 -53.872352 41565.9761 134021.588 -175587.56 -1.7957451
 241500     .2415  143595.062 91407.4725 -62.707871 91470.1804 52187.5893 -143657.77 -2.0902624
 242000      .242  109366.408 139581.587 -65.155352 139646.742 -30215.179 -109431.56 -2.1718451
 242500     .2425  73400.5736  185248.77 -59.957032 185308.727  -111848.2 -73460.531 -1.9985677
 243000      .243  36233.6131 227707.848  -47.39173  227755.24 -191474.24 -36281.005 -1.5797243
 243500     .2435  -1542.2551 266289.424 -28.585898  266318.01 -267831.68 1513.66924 -.95286328
 244000      .244  -39277.528 300357.098 -4.7444568 300361.843 -339634.63 39272.7833 -.15814856
 244500     .2445  -76271.154  329310.75 22.9130271 329287.837  -405581.9 76294.0669 .763767569
 245000      .245  -111786.45 352591.376 54.0717738 352537.304 -464377.83 111840.526 1.80239246
 245500     .2455  -145165.87 369768.606 89.5362109  369679.07 -514934.48  145255.41 2.98454036
 246000      .246  -175900.37 380605.452 129.576648 380475.875 -556505.82 176029.948 4.31922161
 246500     .2465  -203545.65 384991.455 173.075782 384818.379  -588537.1 203718.725 5.76919273
 247000      .247  -227669.43  382897.06  218.42208 382678.638 -610566.49 227887.853 7.28073599
 247500     .2475  -247854.89 374368.968  264.05387 374104.914 -622223.86 248118.948 8.80179566
 248000      .248  -263703.99 359522.839 308.622694 359214.217 -623226.83 264012.616 10.2874231
 248500     .2485  -274864.66 338549.276 351.866697  338197.41 -613413.94 275216.527 11.7288899
 249000      .249  -281139.46 311793.438 394.358236  311399.08  -592932.9 281533.822 13.1452745
 249500     .2495   -282505.3 279772.119 435.911564 279336.208 -562277.42  282941.21 14.5303855
 250000       .25  -279019.84 243091.707 475.227994 242616.479 -522111.54 279495.065 15.8409331
 250500     .2505   -270779.5  202405.35  510.84294 201894.507 -473184.85 271290.342  17.028098
 251000      .251  -257919.01 158400.545 541.470625 157859.074 -416319.56 258460.485 18.0490208
 251500     .2515   -240607.7 111782.565 566.279306 111216.286 -352390.27 241173.983 18.8759769
 252000      .252  -219083.49 63284.8683 585.597629 62699.2707 -282368.36  219669.09  19.519921
 252500     .2525  -193740.33  13734.232 600.270679 13133.9613 -207474.56 194340.596 20.0090226
 253000      .253  -165102.48 -35970.367 610.264667 -36580.631 -129132.11 165712.743 20.3421556
 253500     .2535  -133729.66 -84940.547 614.725007 -85555.272  -48789.11 134344.382 20.4908336
 254000      .254  -100182.44  -132333.9 612.858393 -132946.76 32151.4635 100795.296 20.4286131
 254500     .2545  -65017.512 -177366.79 604.127929 -177970.92 112349.281 65621.6395 20.1375976
  % % % % % %   Suspended simulation;  plot data space exhausted;  SPY SPACE is required.   LIMBUF =  340000.
  % % % % % %   Suspended simulation;  plot data space exhausted;  SPY SPACE is required.   LIMBUF =  340000.
  +++  Time-sharing disabled.   Send  user-keyed interrupt to silence alarm.
   Current values.  INDBUF  INDBEG  LIMBUF  MFLUSH  NUMDCD  KCARD1  KCARD2
                    339994      50  340000    1005      46       1      50
Plot timespan now in memory (in sec) = 2.12459996E-01   2.54953000E-01
   ++++  Begin plot-data copy from memory to disk.   MFLUSH, INDBUF, N4, Tbeg,  Tend = 1006  339994       1  -1.00000E+00
1.00000E+19
 255000      .255  -28780.791 -219329.73 588.617288 -219918.35 190548.937 29369.4084 19.6205763
 255500     .2555  7951.06671 -257563.84 567.484555 -258131.33 265514.908 -7383.5822 18.9161518
 256000      .256  44509.0064 -291408.14 542.038808 -291950.18 335917.149 -43966.968 18.0679603
 256500     .2565  80187.7186 -320240.53 512.634452 -320753.17 400428.253 -79675.084 17.0878151
 257000      .257  114329.871 -343545.44 479.038067 -344024.47 457875.308 -113850.83 15.9679356
 257500     .2575  146349.494 -360933.28 441.171792 -361374.45 507282.769 -145908.32 14.7057264
 258000      .258   175734.77 -372143.74 399.221631 -372542.96 547878.508 -175335.55 13.3073877
 258500     .2585  202048.209  -377047.9  354.04775 -377401.95 579096.112 -201694.16 11.8015917
 259000      .259   224874.27 -375605.28 307.348342 -375912.63 600479.549 -224566.92 10.2449447
 259500     .2595  243780.017 -367819.75 260.589998 -368080.34 611599.763 -243519.43 8.68633326
 260000       .26  258382.657 -353783.68 214.243189 -353997.92 612166.337 -258168.41 7.14143963
 260500     .2605  268412.053 -333721.12 168.353446 -333889.47 602133.173  -268243.7 5.61178154
 261000      .261  273717.621 -307987.52 123.118109 -308110.64 581705.144  -273594.5 4.10393695
 261500     .2615  274262.227 -277059.38 78.9692455 -277138.35 551321.603 -274183.26 2.63230818
 262000      .262  270106.842  -241518.1 36.9798349 -241555.08 511624.938 -270069.86 1.23266116
 262500     .2625  261347.201 -201990.63  -1.253474 -201989.38  463337.83 -261348.45 -.04178247
 263000      .263  248092.031 -159115.49 -34.692333  -159080.8 407207.526 -248126.72 -1.1564111
 263500     .2635   230527.33 -113582.66  -63.26817  -113519.4 344109.994  -230590.6  -2.108939
 264000      .264  208953.023 -66154.379 -87.202642 -66067.176 275107.402 -209040.23 -2.9067547
 264500     .2645  183773.005 -17650.602 -106.59026 -17544.011 201423.607  -183879.6 -3.5530086
 265000      .265  155478.645 31069.7393 -121.29573 31191.0351 124408.906 -155599.94 -4.0431908
 265500     .2655  124616.674 79137.8347 -130.60267 79268.4373 45478.8396 -124747.28 -4.3534222
 266000      .266  91721.9909  125737.86 -133.56905  125871.43  -34015.87  -91855.56 -4.4523016
 266500     .2665  57312.6579 170123.636   -130.008 170253.644 -112810.98 -57442.666    -4.3336
 267000      .267  21945.6016 211580.549 -120.57229 211701.121 -189634.95 -22066.174 -4.0190762
 267500     .2675  -13767.536 249416.148 -106.05101 249522.199 -263183.68 13661.4854 -3.5350338
 268000      .268  -49180.351 282977.014 -87.085512   283064.1 -332157.37 49093.2655 -2.9028504
 268500     .2685  -83633.162 311665.225  -64.02858 311729.253 -395298.39 83569.1339  -2.134286
 269000      .269  -116494.74 334969.318 -36.694924 335006.013 -451464.06 116458.044 -1.2231641
 269500     .2695   -147220.5 352514.446 -4.8935833 352519.339 -499734.94 147215.606 -.16311944
 270000       .27  -175337.93 364054.428 30.7709864 364023.657 -539392.36 175368.703 1.02569955
 270500     .2705  -200397.04 369429.927 69.0830956 369360.844 -569826.97 200466.128 2.30276985
 271000      .271  -221964.81 368558.945 108.871746 368450.073 -590523.75 222073.677 3.62905821
 271500     .2715  -239644.66 361445.555 149.192246 361296.363 -601090.22 239793.854 4.97307488
 272000      .272  -253095.06 348186.282 189.495801 347996.786 -601281.34 253284.552 6.31652671
 272500     .2725  -262070.22 328994.353 229.739992 328764.613 -591064.57 262299.958 7.65799973
 273000      .273  -266457.26 304227.066 269.746859 303957.319 -570684.33 266727.009 8.99156196
 273500     .2735  -266240.48 274353.147 308.621499 274044.526 -540593.63 266549.102 10.2873833
 274000      .274  -261454.14 239906.477 345.126149 239561.351 -501360.62 261799.269  11.504205
 274500     .2745  -252178.35 201472.445 378.235913 201094.209 -453650.79 252556.585 12.6078638
 275000      .275  -238550.93 159686.569 407.245992 159279.323  -398237.5 238958.178 13.5748664
 275500     .2755  -220778.84 115232.048 431.942135 114800.106 -336010.89 221210.783 14.3980712
 276000      .276  -199171.03 68856.9228 452.551955 68404.3709 -268027.95 199623.582 15.0850652
 276500     .2765  -174149.85 21379.8296 469.061229 20910.7684 -195529.68 174618.914 15.6353743
 277000      .277  -146198.85 -26357.455 480.859988 -26838.315 -119841.39 146679.708 16.0286663
 277500     .2775  -115818.65 -73533.609 487.223645 -74020.833 -42285.036 116305.869 16.2407882
 278000      .278  -83522.285 -119360.35 487.739738 -119848.09 35838.0646 84010.0251 16.2579913
 278500     .2785   -49839.99 -163086.74  482.36538  -163569.1 113246.748 50322.3551  16.078846
 279000      .279  -15326.461 -204001.07 471.566034 -204472.63 188674.608 15798.0269 15.7188678
 279500     .2795  19414.0834 -241414.16 456.111548 -241870.27 260828.243 -18957.972 15.2037183
 280000       .28  53737.2589 -274665.38 436.416083  -275101.8 328402.643 -53300.843 14.5472028
 280500     .2805  87015.9968 -303169.63 412.398347 -303582.03 390185.626 -86603.598 13.7466116
 281000      .281  118675.383 -326447.48 383.997888 -326831.48 445122.864 -118291.38 12.7999296
 281500     .2815  148193.237  -344127.7   351.4705 -344479.17 492320.938 -147841.77 11.7156833
 282000      .282  175095.603 -355944.39 315.418042 -356259.81 531039.996 -174780.18 10.5139347
 282500     .2825  198945.793 -361728.01 276.870506 -362004.88 560673.799 -198668.92 9.22901687
 283000      .283  219322.467 -361382.37 236.955643 -361619.33 580704.839 -219085.51 7.89852142
 283500     .2835  235839.299 -354892.21 196.322175 -355088.54 590731.513 -235642.98 6.54407248
 284000      .284  248194.869 -342357.55 155.188657 -342512.74  590552.42 -248039.68 5.17295524
 284500     .2845  256191.221 -324004.05 113.842293 -324117.89 580195.272 -256077.38 3.79474309
 285000      .285  259724.538 -300170.78 72.8225434 -300243.61 559895.323 -259651.72 2.42741811
 285500     .2855  258773.668 -271295.51  32.941659 -271328.46 530069.182 -258740.73  1.0980553
 286000      .286  253379.444 -237891.57 -4.7024108 -237886.86 491271.011 -253384.15 -.15674703
 286500     .2865  243622.358 -200518.86 -39.135966 -200479.73 444141.221 -243661.49 -1.3045322
 287000      .287  229643.796  -159789.5 -69.955673 -159719.55 389433.298 -229713.75 -2.3318558
 287500     .2875  211680.641  -116387.3 -97.125039 -116290.17 328067.937 -211777.77 -3.2375013
 288000      .288   190065.59 -71061.362  -120.5267 -70940.835 261126.952 -190186.12 -4.0175568
 288500     .2885  165207.064 -24603.606 -139.86017 -24463.746 189810.669 -165346.92 -4.6620058
 289000      .289   137569.12 22173.5253 -154.62021 22328.1455 115395.595 -137723.74 -5.1540071
 289500     .2895  107641.939 68467.6569 -164.15507 68631.8119 39174.2825 -107806.09 -5.4718357
 290000       .29  75921.2382 113513.026 -168.10368  113681.13 -37591.788 -76089.342 -5.6034559
 290500     .2905  42928.8471 156572.146 -166.68375  156738.83  -113643.3 -43095.531 -5.5561249
 291000      .291  9232.90274 196924.104 -160.37576  197084.48  -187691.2 -9393.2785 -5.3458587
 291500     .2915  -24564.477 233877.039 -149.54655 234026.585 -258441.52 24414.9302 -4.9848851
 292000      .292  -57852.156 266789.976 -134.39963 266924.376 -324642.13 57717.7564 -4.4799877
 292500     .2925  -90033.422 295092.593 -114.95379 295207.547 -385126.02  89918.468 -3.8317929
 293000      .293  -120556.46 318311.477 -91.168982 318402.646 -438867.94 120465.294 -3.0389661
 293500     .2935  -148926.12 336083.083 -63.365044 336146.448  -485009.2  148862.75 -2.1121681
 294000      .294  -174680.52 348135.478 -32.348877 348167.827   -522816.  174648.17 -1.0782959
 294500     .2945  -197378.26 354275.105 .964903676  354274.14 -551653.37 197379.225 .032163456
 295000      .295   -216613.5 354394.348 35.8468852 354358.501 -571007.85 216649.344 1.19489617
 295500     .2955  -232036.83 348483.126 71.7689329 348411.357 -580519.96 232108.604 2.39229776
 296000      .296   -243374.2 336638.267 108.412924 336529.854 -580012.47 243482.613 3.61376412
 296500     .2965  -250448.67 319076.769 145.483623 318931.286 -569525.44 250594.152 4.84945408
 297000      .297  -253176.68 296129.509 182.341078 295947.168 -549306.19 253359.025 6.07803594
  % % % % % %   Suspended simulation;  plot data space exhausted;  SPY SPACE is required.   LIMBUF =  340000.
  % % % % % %   Suspended simulation;  plot data space exhausted;  SPY SPACE is required.   LIMBUF =  340000.
  +++  Time-sharing disabled.   Send  user-keyed interrupt to silence alarm.
   Current values.  INDBUF  INDBEG  LIMBUF  MFLUSH  NUMDCD  KCARD1  KCARD2
                    339994      50  340000    1006      46       1      50
Plot timespan now in memory (in sec) = 2.54952013E-01   2.97445000E-01
   ++++  Begin plot-data copy from memory to disk.   MFLUSH, INDBUF, N4, Tbeg,  Tend = 1007  339994       1  -1.00000E+00
1.00000E+19
 297500     .2975  -251538.24  268211.01 218.015303 267992.995 -519749.25 251756.257 7.26717678
 298000      .298  -245564.52 235800.929 251.598268 235549.331 -481365.45 245816.116 8.38660893
 298500     .2985  -235348.12 199443.019 282.447555 199160.571 -434791.14 235630.566 9.41491851
 299000      .299  -221054.25 159745.067 310.177408  159434.89 -380799.31 221364.424 10.3392469
 299500     .2995   -202930.6 117378.216  334.63774 117043.578 -320308.82 203265.241 11.1545913
 300000       0.3  -181315.73 73077.5429 355.676316 72721.8666 -254393.27 181671.406 11.8558772
 300500     .3005  -156619.11 27620.7292 372.842533 27247.8867 -184239.84 156991.951 12.4280844
 301000      .301  -129286.16 -18207.574 385.511789 -18593.086 -111078.59 129671.675  12.850393
 301500     .3015  -99785.202 -63634.693 393.246723  -64027.94 -36150.509 100178.449 13.1082241
 302000      .302  -68611.967 -107904.18 395.914356 -108300.09 39292.2092 69007.8818 13.1971452
 302500     .3025  -36292.697 -150280.12 393.655376 -150673.77 113987.422 36686.3527 13.1218459
 303000      .303  -3387.4239 -190049.76 386.820784 -190436.58 186662.335 3774.24465 12.8940261
 303500     .3035  29512.4396 -226527.51  375.70139 -226903.21  256039.95 -29136.738 12.5233797
 304000      .304  61813.2018 -259079.92  360.31539 -259440.24 320893.122 -61452.886  12.010513
 304500     .3045  92951.9207 -287155.11 340.607786 -287495.72 380107.031 -92611.313 11.3535929
 305000      .305  122405.305  -310292.8 316.752752 -310609.56 432698.109 -122088.55 10.5584251
 305500     .3055   149685.45 -328122.49 289.197328 -328411.69  477807.94 -149396.25 9.63991094
 306000      .306  174337.679 -340361.81 258.612774 -340620.43 514699.491 -174079.07 8.62042579
 306500     .3065  195936.967 -346811.73 225.787227 -347037.52 542748.699 -195711.18  7.5262409
 307000      .307  214093.708 -347356.34 191.348762 -347547.69 561450.048 -213902.36 6.37829206
 307500     .3075  228481.707  -341980.7 155.644749 -342136.35 570462.412 -228326.06 5.18815831
 308000      .308  238860.553 -330785.31 118.986431  -330904.3 569645.864 -238741.57 3.96621437
 308500     .3085  245074.191 -313981.19 81.8820595 -314063.07  559055.38 -244992.31 2.72940198
 309000      .309   247040.64 -291876.75 45.0284845 -291921.78 538917.392 -246995.61 1.50094948
 309500     .3095  244743.784 -264865.28  9.2509589 -264874.53 509609.062 -244734.53 .308365297
 310000       .31  238224.003 -233409.64 -24.638356   -233385. 471633.645 -238248.64 -.82127852
 310500     .3105   227581.37  -198035.5 -56.093574  -197979.4 425616.867 -227637.46 -1.8697858
 311000      .311  212995.357 -159339.03 -84.861038 -159254.17 372334.389 -213080.22 -2.8287013
 311500     .3115  194732.376 -117986.43 -110.71352 -117875.71 312718.802 -194843.09 -3.6904505
 312000      .312   173132.39 -74696.755 -133.28311 -74563.472 247829.144 -173265.67 -4.4427704
 312500     .3125  148591.119 -30220.941  -152.0987 -30068.843 178812.061 -148743.22 -5.0699565
 313000      .313  121544.604 14677.6291 -166.65127 14844.2804 106866.975 -121711.25 -5.5550424
 313500     .3135  92454.6522 59242.8204 -176.55378 59419.3741 33211.8318 -92631.206 -5.8851259
 314000      .314  61809.4986 102733.336 -181.74428  102915.08 -40923.837 -61991.243 -6.0581425
 314500     .3145  30135.1961 144419.351 -182.42304 144601.774 -114284.15 -30317.619 -6.0807679
 315000      .315  -2008.4018  183589.61 -178.78644 183768.397 -185598.01 1829.61539  -5.959548
 315500     .3155  -34047.856 219570.809 -170.91723 219741.727 -253618.67  33876.939 -5.6972409
 316000      .316  -65416.444 251746.769 -158.83373 251905.603 -317163.21 65257.6106 -5.2944576
 316500     .3165   -95571.41 279574.834 -142.55821 279717.392 -375146.24 95428.8522 -4.7519403
 317000      .317  -124007.08 302599.386 -122.28013 302721.666 -426606.47 123884.802 -4.0760045
 317500     .3175  -150251.41 320451.027 -98.494375 320549.521 -470702.43 150152.914 -3.2831458
 318000      .318  -173857.22 332838.842  -71.86645 332910.708 -506696.06 173785.355 -2.3955483
 318500     .3185  -194409.63  339553.81 -42.986897 339596.797 -533963.44 194366.639 -1.4328966
 319000      .319  -211544.28 340480.309 -12.311195  340492.62 -552024.59 211531.967 -.41037317
 319500     .3195  -224962.41 335604.663  19.786347 335584.877 -560567.07 224982.194 .659544899
 320000       .32  -234442.14 325020.564  52.937793 324967.626  -559462.7 234495.078  1.7645931
 320500     .3205  -239842.55 308929.056 86.6246634 308842.431 -548771.61 239929.176 2.88748878
 321000      .321  -241091.82  287624.49 120.106389 287504.383 -528716.31 241211.928 4.00354629
 321500     .3215  -238175.41 261478.348 152.600569 261325.747 -499653.75 238328.007 5.08668564
 322000      .322  -231139.73 230934.552  183.48843 230751.064 -462074.28  231323.22 6.11628101
 322500     .3225  -220102.23 196509.925 212.330189 196297.595 -416612.15 220314.558 7.07767295
 323000      .323  -205256.47 158790.978 238.805254 158552.172 -364047.45 205495.279 7.96017514
 323500     .3235  -186873.56 118428.311 262.624955 118165.686 -305301.87 187136.186 8.75416516
 324000      .324  -165294.32 76124.4876 283.387852 75841.0997  -241418.8 165577.705 9.44626174
 324500     .3245  -140908.62 32610.7098  300.56684  32310.143 -173519.33 141209.189 10.0188947
 325000      .325  -114139.86 -11373.456 313.705995 -11687.162 -102766.41 114453.567 10.4568665
 325500     .3255  -85443.885 -55088.563 322.571672 -55411.135 -30355.322 85766.4567 10.7523891
 326000      .326   -55311.14  -97800.23 327.128235 -98127.358 42489.0901 55638.2682 10.9042745
 326500     .3265  -24264.032 -138786.88 327.468761 -139114.35 114522.847 24591.5005 10.9156254
 327000      .327  7148.96887 -177348.62 323.712499 -177672.33 184497.588 -6825.2564 10.7904166
 327500     .3275   38368.695 -212822.57 315.878368 -213138.44  251191.26 -38052.817 10.5292789
 328000      .328  68848.8332 -244605.08 303.919687   -244909. 313453.912 -68544.914 10.1306562
 328500     .3285  98069.9187  -272166.5 287.913964 -272454.41 370236.417 -97782.005 9.59713215
 329000      .329  125540.185 -295054.37 268.155604 -295322.53 420594.555 -125272.03 8.93852014
 329500     .3295   150795.21 -312894.25 245.100919 -313139.35 463689.456 -150550.11 8.17003063
 330000       .33  173401.269 -325392.04 219.289277 -325611.33 498793.307 -173181.98 7.30964257
[...]
             Random switching times for simulation number  296  :
                                   1  5.5801796E-02    2  5.4258744E-02    3  5.4176209E-02    4  1.0357663E-02    5  6.9853327E-01
                                   6  6.9869586E-01    7  6.9958808E-01

                   -692625.67 -707952.12 -722221.97 .1137587E7 -.115147E7 -.121831E7 2484.52753
Times of maxima :     .007664    .713948     .00336    .005046      .0067    .002965    .713915
             Random switching times for simulation number  297  :
                                   1  5.6055230E-02    2  5.4163897E-02    3  5.4929744E-02    4  9.5205641E-03    5  7.0046628E-01
                                   6  6.9931070E-01    7  6.9985771E-01

                   -692625.67 -674189.56 -722221.97 .1137587E7 -.115147E7 -.121831E7 2584.72735
Times of maxima :     .007664    .713972     .00336    .005046      .0067    .002965    .014574
             Random switching times for simulation number  298  :
                                   1  5.4402657E-02    2  5.4726493E-02    3  5.5809066E-02    4  1.1302849E-02    5  6.9999931E-01
                                   6  6.9999918E-01    7  7.0135056E-01

                   -692625.67 -684349.32 -722221.97 .1137587E7 -.115147E7 -.121831E7 2463.89773
Times of maxima :     .007664    .714117     .00336    .005046      .0067    .002965    .713663
             Random switching times for simulation number  299  :
                                   1  5.4359107E-02    2  5.5309833E-02    3  5.5354775E-02    4  9.7516764E-03    5  7.0067447E-01
                                   6  7.0174165E-01    7  7.0054964E-01

                   -692625.67 -672542.16 -722221.97 .1137587E7 -.115147E7 -.121831E7 2489.70818
Times of maxima :     .007664     .71396     .00336    .005046      .0067    .002965     .71365
             Random switching times for simulation number  300  :
                                   1  5.6212631E-02    2  5.5400460E-02    3  5.4330646E-02    4  9.8967378E-03    5  7.0009595E-01
                                   6  7.0031249E-01    7  6.9985806E-01

                   -692625.67  -680247.5 -722221.97 .1137587E7 -.115147E7 -.121831E7 2468.15156
Times of maxima :     .007664    .714182     .00336    .005046      .0067    .002965    .713623

 MAIN20 dumps OVER12 dice seed  SEEDSV =   3.0444871000000000E+09

Statistical output of  node  voltage   0.4287E+06 |              X0003AX0003BX0003C

1 ) -------------------------------------------------------------------------------------------------------------------------------
Statistical distribution of peak voltage at node  "X0003A".   The base voltage for per unit printout is  V-base = 4.28660705E+05
  Interval             voltage         voltage  in     Frequency    Cumulative               Per cent
    number         in per unit      physical units     (density)     frequency     .GE. current value
        32           1.6000000      6.85857128E+05             0             0          100.000000
        33           1.6500000      7.07290163E+05           267           267           11.000000
        34           1.7000000      7.28723199E+05             5           272            9.333333
        35           1.7500000      7.50156234E+05             5           277            7.666667
        36           1.8000000      7.71589269E+05             3           280            6.666667
        37           1.8500000      7.93022304E+05             5           285            5.000000
        38           1.9000000      8.14455340E+05            11           296            1.333333
        39           1.9500000      8.35888375E+05             4           300             .000000
Summary of preceding table follows:       Grouped data     Ungrouped data
                                 Mean = 1.64550000E+00     1.63749093E+00
                             Variance = 4.18536789E-03     4.49990948E-03
                   Standard deviation = 6.46944193E-02     6.70813646E-02

2 ) -------------------------------------------------------------------------------------------------------------------------------
Statistical distribution of peak voltage at node  "X0003B".   The base voltage for per unit printout is  V-base = 4.28660705E+05
  Interval             voltage         voltage  in     Frequency    Cumulative               Per cent
    number         in per unit      physical units     (density)     frequency     .GE. current value
        30           1.5000000      6.42991058E+05             0             0          100.000000
        31           1.5500000      6.64424093E+05            33            33           89.000000
        32           1.6000000      6.85857128E+05           150           183           39.000000
        33           1.6500000      7.07290163E+05            87           270           10.000000
        34           1.7000000      7.28723199E+05            25           295            1.666667
        35           1.7500000      7.50156234E+05             0           295            1.666667
        36           1.8000000      7.71589269E+05             0           295            1.666667
        37           1.8500000      7.93022304E+05             0           295            1.666667
        38           1.9000000      8.14455340E+05             0           295            1.666667
        39           1.9500000      8.35888375E+05             0           295            1.666667
        40           2.0000000      8.57321410E+05             0           295            1.666667
        41           2.0500000      8.78754445E+05             0           295            1.666667
        42           2.1000000      9.00187481E+05             0           295            1.666667
        43           2.1500000      9.21620516E+05             0           295            1.666667
        44           2.2000000      9.43053551E+05             1           296            1.333333
        45           2.2500000      9.64486586E+05             4           300             .000000
Summary of preceding table follows:       Grouped data     Ungrouped data
                                 Mean = 1.60300000E+00     1.60239026E+00
                             Variance = 7.90903010E-03     7.29214742E-03
                   Standard deviation = 8.89327279E-02     8.53940713E-02

3 ) -------------------------------------------------------------------------------------------------------------------------------
  SUMMARY   SUMMARY   SUMMARY   SUMMARY   SUMMARY   SUMMARY   SUMMARY   SUMMARY   SUMMARY   SUMMARY   SUMMARY   SUMMARY   SUMMARY
3 ) -------------------------------------------------------------------------------------------------------------------------------
The following is a distribution of peak overvoltages among all output nodes of the last data card that have the same base voltage.
This distribution is for the maximum of the peaks at all output nodes with  V-base = 4.28660705E+05
  Interval             voltage         voltage  in     Frequency    Cumulative               Per cent
    number         in per unit      physical units     (density)     frequency     .GE. current value
        33           1.6500000      7.07290163E+05             0             0          100.000000
        34           1.7000000      7.28723199E+05           267           267           11.000000
        35           1.7500000      7.50156234E+05             5           272            9.333333
        36           1.8000000      7.71589269E+05             3           275            8.333333
        37           1.8500000      7.93022304E+05             5           280            6.666667
        38           1.9000000      8.14455340E+05            11           291            3.000000
        39           1.9500000      8.35888375E+05             4           295            1.666667
        40           2.0000000      8.57321410E+05             0           295            1.666667
        41           2.0500000      8.78754445E+05             0           295            1.666667
        42           2.1000000      9.00187481E+05             0           295            1.666667
        43           2.1500000      9.21620516E+05             0           295            1.666667
        44           2.2000000      9.43053551E+05             1           296            1.333333
        45           2.2500000      9.64486586E+05             4           300             .000000
Summary of preceding table follows:       Grouped data     Ungrouped data
                                 Mean = 1.69900000E+00     1.70751096E+00
                             Variance = 7.13110368E-03     6.46948283E-03
                   Standard deviation = 8.44458624E-02     8.04330953E-02

Statistical output of branch voltage   0.4287E+06 |-1            X0003BX0003CX0003AX0003BX0003CX0003A

4 ) -------------------------------------------------------------------------------------------------------------------------------
Statistical distribution of peak voltage  for branch  "X0003A"  to  "X0003B".   Base voltage  for per unit output = 4.28660705E+05
  Interval             voltage         voltage  in     Frequency    Cumulative               Per cent
    number         in per unit      physical units     (density)     frequency     .GE. current value
        53           2.6500000      1.13595087E+06             0             0          100.000000
        54           2.7000000      1.15738390E+06           295           295            1.666667
        55           2.7500000      1.17881694E+06             4           299             .333333
        56           2.8000000      1.20024997E+06             1           300             .000000
Summary of preceding table follows:       Grouped data     Ungrouped data
                                 Mean = 2.67600000E+00     2.68699915E+00
                             Variance = 6.58862876E-05     4.31229023E-05
                   Standard deviation = 8.11703687E-03     6.56680305E-03

5 ) -------------------------------------------------------------------------------------------------------------------------------
  SUMMARY   SUMMARY   SUMMARY   SUMMARY   SUMMARY   SUMMARY   SUMMARY   SUMMARY   SUMMARY   SUMMARY   SUMMARY   SUMMARY   SUMMARY
5 ) -------------------------------------------------------------------------------------------------------------------------------
A distribution of peak values among all output branches of the last data card that have the same base value follows.  This
statistical distribution is for the maximum of the peaks at all of these output branches having base  voltage  = 4.28660705E+05
  Interval             voltage         voltage  in     Frequency    Cumulative               Per cent
    number         in per unit      physical units     (density)     frequency     .GE. current value
        56           2.8000000      1.20024997E+06             0             0          100.000000
        57           2.8500000      1.22168301E+06           300           300             .000000
Summary of preceding table follows:       Grouped data     Ungrouped data
                                 Mean = 2.82500000E+00     2.84214108E+00
                             Variance = 1.52089415E-15     3.44070616E-14
                   Standard deviation = 3.89986429E-08     1.85491406E-07

Blank card ends statistical tabulation requests.  |BLANK STATISTICS

                                      Sample curve symbols : "A", "B", and "C"
                                      Theoretical curve symbol : "*"
                                      Common curve symbol : "X"

        Switch  "X0001B"  to  "X0002B"            Switch  "X0001A"  to  "X0002A"            Switch  "X0001C"  to  "X0002C"
1.32420000E+00   switchings per column          1.32420000E+00   switchings per column     1.32420000E+00   switchings per column
              Columns                                     Columns                                     Columns
          5   10   15   20   25   30                5   10   15   20   25   30                5   10   15   20   25   30
     +----+----+----+----+----+----+           +----+----+----+----+----+----+           +----+----+----+----+----+----+
    X                                         X                                         X
    X                                         X                                         X
    X                                         X                                         X
    *A                                        X                                         X
    |*A                                       B*                                        |*C
    |A*                                       | X                                       | X
    |   X                                     | B *                                     |   *  C
    |       X                                 |       X                                 |     C *
    |      A    *                             |           *B                            |       C   *
    |                 * A                     |                 *    B                  |                 *  C
    |                       *     A           |                       X                 |                       *    C
    |                      A    *             |                           *   B         |                    C      *
    |  5.5000E-02                 *     A     |  5.5000E-02              B  *           |  5.5000E-02                 *     C
    |                           *      A      |                         B *             |                         C *
    |                  A    *                 |                       * B               |                       *     C
    |               A *                       |                B*                       |            C    *
    |         A *                             |          B*                             |        C  *
    |       * A                               |       X                                 |       *  C
    |  A*                                     |   X                                     | C *
    | *A                                      | X                                       | X
    |X                                        |X                                        |*C
    X                                         *B                                        X
    X                                         X                                         X
    X                                         X                                         *C
    X                                         X                                         X
   Time (scale = 3.33333333E-04  Sec/line)   Time (scale = 3.33333333E-04  Sec/line)   Time  (scale = 3.33333333E-04  Sec/line)

        Switch  "X0003C"  to  "XX0009"            Switch  "X0001B"  to  "X0002B"            Switch  "X0001A"  to  "X0002A"
1.32420000E+00   switchings per column          1.32420000E+00   switchings per column     1.32420000E+00   switchings per column
              Columns                                     Columns                                     Columns
          5   10   15   20   25   30                5   10   15   20   25   30                5   10   15   20   25   30
     +----+----+----+----+----+----+           +----+----+----+----+----+----+           +----+----+----+----+----+----+
    X                                         X                                         X
    X                                         X                                         X
    X                                         X                                         X
    *A                                        X                                         * C
    |X                                        |X                                        |*C
    | *A                                      | X                                       | X
    |  A*                                     |  B*                                     |   X
    |      A*                                 |    B  *                                 |     C *
    |         A *                             |           *  B                          |          C*
    |                 * A                     |                B*                       |                 X
    |                       *     A           |                       *    B            |                       X
    |                           *    A        |                           *B            |                           * C
    |  1.0000E-02                 *A          |  7.0000E-01                 *   B       |  7.0000E-01                C*
    |                           *   A         |                           *  B          |                           *  C
    |                A      *                 |                   B   *                 |                    C  *
    |                 * A                     |            B    *                       |                 X
    |           X                             |         B *                             |           * C
    |     A *                                 |     B *                                 |       X
    A   *                                     |   *  B                                  |   *C
    A *                                       | X                                       C *
    A*                                        |*B                                       |*C
    *A                                        *B                                        X
    X                                         X                                         X
    X                                         *B                                        X
    X                                         X                                         X
   Time (scale = 3.33333333E-04  Sec/line)   Time (scale = 3.33333333E-04  Sec/line)   Time  (scale = 3.33333333E-04  Sec/line)

   Switch  "X0001C"  to  "X0002C"
     1.32420000E+00   switchings per column
              Columns
          5   10   15   20   25   30
     +----+----+----+----+----+----+
    X
    X
    *A
    X
    |X
    |A*
    | A *
    |       X
    |           *    A
    |          A      *
    |                       *    A
    |                         A *
    |  7.0000E-01                A*
    |                          A*
    |                       X
    |                 *  A
    |           *       A
    |    A  *
    |   X
    A *
    A*
    *A
    X
    *A
    X
   Time (scale = 3.33333333E-04  Sec/line)
 .... Questionable Kolmogorov-Smirnov test result = 4.79983461E-01
 .... Questionable Kolmogorov-Smirnov test result = 8.61125218E-01
 .... Questionable Kolmogorov-Smirnov test result = 6.22920778E-01
 .... Questionable Kolmogorov-Smirnov test result = 8.70941508E-02
 .... Questionable Kolmogorov-Smirnov test result = 7.08509700E-01
 .... Questionable Kolmogorov-Smirnov test result = 9.61921384E-01
 .... Questionable Kolmogorov-Smirnov test result = 7.92096056E-01

Actual List Sizes for the preceding solution follow.       11-Nov-18  11.00.00
   Size  1-10:    27    26    38     3   138    13    42  5310     0     0
   Size 11-20:     0     7 -9999 -9999 -9999     0     0     0    23  2972
   Size 21-30:    36   180 14783     0 -9999     9 -9999 -9999 -9999     0
Seconds for overlays  1-5  :     0.000     0.000     0.000  -- (CP: Wait; Real)
Seconds for overlays  6-11 :     0.000     0.000     0.000
Seconds for overlays 12-15 :     0.000     0.000     0.000
Seconds for time-step loop :     0.000     0.000     0.000
Seconds after DELTAT-loop  :     0.000     0.000     0.000
                               ---------------------------
                   Totals  :     0.000     0.000     0.000

