   ---   55   cards of disk file read into card cache cells  1   onward.
 <===> Done with  "/"-card sorting by data class.    Remember that the source file appears different from interpreted input data.
Alternative Transients Program (ATP),  F77 GNU Linux or DOS.  All rights reserved by Can/Am user group of Portland, Oregon, USA.
 Date (dd-mth-yy) and time of day (hh.mm.ss) = 11-Nov-18  11.00.00    Name of disk plot file, if any, is
Consult the 860-page ATP Rule Book of the Can/Am EMTP User Group in Portland,  Oregon, USA.  Source code date is
Total size of LABCOM tables = 16446853 INTEGER words.  31 VARDIM  List Sizes follow:  6002  10K  192K  900  420K  1200  15K
  120K  2250  3800  720  2K  72800  510  800K  800  90  254  800K  100K  3K  15K  192K  120  45K  260K  600  210K  1100  19  200K
--------------------------------------------------+--------------------------------------------------------------------------------
Descriptive interpretation of input data cards.   |  Input data card images are shown below, all 80 columns, character by character
                                                  0         1         2         3         4         5         6         7         8
                                                  012345678901234567890123456789012345678901234567890123456789012345678901234567890
--------------------------------------------------+--------------------------------------------------------------------------------
Comment card.   KOMPAR > 0.                       |C data:Caso0_ReEnergizacao_OTIMIZADA_SemControle.atp
Marker card preceding new EMTP data case.         |BEGIN NEW DATA CASE
Comment card.   KOMPAR > 0.                       |C $DUMMY, XYZ000
Misc. data.     1.000E-06   1.000E+00   0.000E+00 |   1.E-6      1.
Misc. data.  500  1  0  0  1  0  0  1  300  0     |     500       1       0       0       1       0       0       1     300
Statistics data.      1    1    0    0    1    0  |       1       1       0       0       1      -1                               0
Series R-L-C.   5.000E+00  7.500E-02  0.000E+00   |  X0001AX0007A                5.   75.                                         0
Series R-L-C.   5.000E+00  7.500E-02  0.000E+00   |  X0001BX0007B                5.   75.                                         0
Series R-L-C.   5.000E+00  7.500E-02  0.000E+00   |  X0001CX0007C                5.   75.                                         0
Series R-L-C.   2.000E+02  0.000E+00  0.000E+00   |  X0007AX0001A              200.                                               0
Series R-L-C.   2.000E+02  0.000E+00  0.000E+00   |  X0007BX0001B              200.                                               0
Series R-L-C.   2.000E+02  0.000E+00  0.000E+00   |  X0007CX0001C              200.                                               0
Series R-L-C.   1.321E+00  1.401E+00  0.000E+00   |  X0003BXX0008            1.32071401.3                                         0
Series R-L-C.   1.321E+00  1.401E+00  0.000E+00   |  X0003AXX0008            1.32071401.3                                         0
Series R-L-C.   1.321E+00  1.401E+00  0.000E+00   |  X0003CXX0008            1.32071401.3                                         0
Series R-L-C.   3.900E-01  4.138E-01  0.000E+00   |  XX0008                     .39 413.8                                         0
Series R-L-C.   3.000E+01  0.000E+00  0.000E+00   |  XX0009                     30.                                               0
Series R-L-C.   8.000E+02  0.000E+00  0.000E+00   |  X0002AX0010A              800.                                               0
Series R-L-C.   8.000E+02  0.000E+00  0.000E+00   |  X0002BX0010B              800.                                               0
Series R-L-C.   8.000E+02  0.000E+00  0.000E+00   |  X0002CX0010C              800.                                               0
Dynamic $INCLUDE uses fixed RAM cache to delay.   |$INSERT, C:\SimulacaoATP\3\EXT1.pch
J. Marti line, mode  1   parameters begin.        |-1X0010AX0005C                2.  0.00              -2 3
J. Marti line, mode  2   parameters begin.        |-2X0010BX0005A                2.  0.00              -2 3
J. Marti line, mode  3   parameters begin.        |-3X0010CX0005B                2.  0.00              -2 3
TR(1,1 )...  0.671-0.707-0.324                    |  0.67102882 -0.70710678 -0.32400803
TI(1,1 )...  0.000 0.000 0.003                    |  0.00000000  0.00000000  0.00341127
TR(2,1 )...  0.315 0.000 0.889                    |  0.31480489  0.00000000  0.88876566
TI(2,1 )... -0.018 0.000 0.010                    | -0.01839933  0.00000000  0.01048452
TR(3,1 )...  0.671 0.707-0.324                    |  0.67102882  0.70710678 -0.32400803
TI(3,1 )...  0.000 0.000 0.003                    |  0.00000000  0.00000000  0.00341127
Dynamic $INCLUDE uses fixed RAM cache to delay.   |$INSERT, C:\SimulacaoATP\3\OTIM2.pch
J. Marti line, mode  1   parameters begin.        |-1X0004AX0006C                2.  0.00              -2 3
J. Marti line, mode  2   parameters begin.        |-2X0004BX0006A                2.  0.00              -2 3
J. Marti line, mode  3   parameters begin.        |-3X0004CX0006B                2.  0.00              -2 3
TR(1,1 )...  0.671-0.707-0.324                    |  0.67102882 -0.70710678 -0.32400803
TI(1,1 )...  0.000 0.000 0.003                    |  0.00000000  0.00000000  0.00341127
TR(2,1 )...  0.315 0.000 0.889                    |  0.31480489  0.00000000  0.88876566
TI(2,1 )... -0.018 0.000 0.010                    | -0.01839933  0.00000000  0.01048452
TR(3,1 )...  0.671 0.707-0.324                    |  0.67102882  0.70710678 -0.32400803
TI(3,1 )...  0.000 0.000 0.003                    |  0.00000000  0.00000000  0.00341127
Dynamic $INCLUDE uses fixed RAM cache to delay.   |$INSERT, C:\SimulacaoATP\3\OTIM3.pch
J. Marti line, mode  1   parameters begin.        |-1X0005AX0004C                2.  0.00              -2 3
J. Marti line, mode  2   parameters begin.        |-2X0005BX0004A                2.  0.00              -2 3
J. Marti line, mode  3   parameters begin.        |-3X0005CX0004B                2.  0.00              -2 3
TR(1,1 )...  0.671-0.707-0.324                    |  0.67102882 -0.70710678 -0.32400803
TI(1,1 )...  0.000 0.000 0.003                    |  0.00000000  0.00000000  0.00341127
TR(2,1 )...  0.315 0.000 0.889                    |  0.31480489  0.00000000  0.88876566
TI(2,1 )... -0.018 0.000 0.010                    | -0.01839933  0.00000000  0.01048452
TR(3,1 )...  0.671 0.707-0.324                    |  0.67102882  0.70710678 -0.32400803
TI(3,1 )...  0.000 0.000 0.003                    |  0.00000000  0.00000000  0.00341127
Dynamic $INCLUDE uses fixed RAM cache to delay.   |$INSERT, C:\SimulacaoATP\3\EXT4.pch
J. Marti line, mode  1   parameters begin.        |-1X0006AX0003A                2.  0.00              -2 3
J. Marti line, mode  2   parameters begin.        |-2X0006BX0003B                2.  0.00              -2 3
J. Marti line, mode  3   parameters begin.        |-3X0006CX0003C                2.  0.00              -2 3
TR(1,1 )...  0.671-0.707-0.324                    |  0.67102882 -0.70710678 -0.32400803
TI(1,1 )...  0.000 0.000 0.003                    |  0.00000000  0.00000000  0.00341127
TR(2,1 )...  0.315 0.000 0.889                    |  0.31480489  0.00000000  0.88876566
TI(2,1 )... -0.018 0.000 0.010                    | -0.01839933  0.00000000  0.01048452
TR(3,1 )...  0.671 0.707-0.324                    |  0.67102882  0.70710678 -0.32400803
TI(3,1 )...  0.000 0.000 0.003                    |  0.00000000  0.00000000  0.00341127
Blank card ending branches.  IBR, NTOT = 26  27   |BLANK BRANCH
Switch.   5.50E-02  1.00E-03  0.00E+00  3.33E+03  |  X0001BX0002B      .055      .001               3333.STATISTICS               0
Switch.   5.50E-02  1.00E-03  0.00E+00  3.33E+03  |  X0001AX0002A      .055      .001               3333.STATISTICS               0
Switch.   5.50E-02  1.00E-03  0.00E+00  3.33E+03  |  X0001CX0002C      .055      .001               3333.STATISTICS               0
Switch.   1.00E-02  1.00E-03  0.00E+00  0.00E+00  |  X0003CXX0009       .01      .001                    STATISTICS               1
Switch.   7.00E-01  1.00E-03  0.00E+00  0.00E+00  |  X0001BX0002B        .7      .001                    STATISTICS               0
Switch.   7.00E-01  1.00E-03  0.00E+00  0.00E+00  |  X0001AX0002A        .7      .001                    STATISTICS               0
Switch.   7.00E-01  1.00E-03  0.00E+00  0.00E+00  |  X0001CX0002C        .7      .001                    STATISTICS               0
Switch.   0.00E+00  6.98E-01  0.00E+00  0.00E+00  |  X0002AX0010A                .698                                             0
Switch.   0.00E+00  6.98E-01  0.00E+00  0.00E+00  |  X0002BX0010B                .698                                             0
Switch.   0.00E+00  6.98E-01  0.00E+00  0.00E+00  |  X0002CX0010C                .698                                             0
Switch.   7.10E-01  0.00E+00  0.00E+00  0.00E+00  |  X0002AX0010A       .71                                                       0
Switch.   7.10E-01  0.00E+00  0.00E+00  0.00E+00  |  X0002BX0010B       .71                                                       0
Switch.   7.10E-01  0.00E+00  0.00E+00  0.00E+00  |  X0002CX0010C       .71                                                       0
Blank card ending switches.   KSWTCH = 13.        |BLANK SWITCH
Source.   4.29E+05  6.00E+01  0.00E+00 -1.00E+00  |14X0007A  428660.705       60.                                     -1.      100.
Source.   4.29E+05  6.00E+01 -1.20E+02 -1.00E+00  |14X0007B  428660.705       60.     -120.                           -1.      100.
Source.   4.29E+05  6.00E+01 -2.40E+02 -1.00E+00  |14X0007C  428660.705       60.     -240.                           -1.      100.
Blank card ends electric sources.  KCONST = 3     |BLANK SOURCE

     Total network loss  P-loss  by summing injections =   2.466573470080E+08

Card of names for time-step loop output.          |  X0003AX0003BX0003C
Output voltage differences for pairs of A6 names  |-5X0003BX0003CX0003AX0003BX0003CX0003A
Blank card ending requests for output variables.  |BLANK OUTPUT

Column headings for the  7   EMTP output variables follow.  These are divided among the 5 possible classes as follows ....
  First  6     output variables are electric-network voltage differences (upper voltage minus lower voltage);
  Next   1     output variables are branch currents (flowing from the upper node to the lower node);
   Step      Time      X0003A     X0003B     X0003C     X0003B     X0003A     X0003C     X0003C
                                                        X0003C     X0003B     X0003A     XX0009
 ***      Phasor I(0) =  1.7285681E+01                     Switch  "X0001B"  to  "X0002B"  closed in the steady-state.
 ***      Phasor I(0) =  3.8486511E+02                     Switch  "X0001A"  to  "X0002A"  closed in the steady-state.
 ***      Phasor I(0) = -3.9879193E+02                     Switch  "X0001C"  to  "X0002C"  closed in the steady-state.
 ***                    Switch  "X0002A"  to  "X0010A"  closed  after  0.00000000E+00  sec.
 ***                    Switch  "X0002B"  to  "X0010B"  closed  after  0.00000000E+00  sec.
 ***                    Switch  "X0002C"  to  "X0010C"  closed  after  0.00000000E+00  sec.
      0       0.0  124633.164 -240673.06 112984.787 -353657.85 365306.227 -11648.378        0.0
    500     .5E-3  160289.524 -234319.88 72191.0632 -306510.95 394609.406  -88098.46        0.0
   1000     .1E-2  190986.519 -220025.34 28336.2854 -248361.62 411011.857 -162650.23        0.0
   1500     .0015  214066.985 -198187.62 -16419.562 -181768.06 412254.608 -230486.55        0.0
   2000      .002  551568.863 -134799.23 -480469.32  345670.09 686368.094 -.103204E7        0.0
   2500     .0025  566618.736 12244.5654 -608166.53 620411.095 554374.171 -.117479E7        0.0
   3000      .003  514052.419 145817.167 -696266.24 842083.404 368235.253 -.121032E7        0.0
   3500     .0035  425268.701 260501.907 -725541.22 986043.123 164766.794 -.115081E7        0.0
   4000      .004  317123.614 382416.881 -690529.17 .1072946E7 -65293.267 -.100765E7        0.0
   4500     .0045  194466.082 493194.762 -639197.19 .1132392E7 -298728.68 -833663.27        0.0
   5000      .005  46182.3892 573473.399 -564376.54  .113785E7 -527291.01 -610558.93        0.0
   5500     .0055  -215161.07 614289.543 -355440.65 969730.196 -829450.61 -140279.59        0.0
   6000      .006  -437431.57 590867.607 -124279.51 715147.118  -.10283E7 313152.057        0.0
   6500     .0065  -567573.31 535561.779 76117.8232 459443.956 -.110314E7  643691.13        0.0
   7000      .007  -637772.35 457506.791 237018.787 220488.004 -.109528E7 874791.141        0.0
   7500     .0075  -666912.36 364539.793 343455.537 21084.2556 -.103145E7 .1010368E7        0.0
   8000      .008  -660232.12 252912.634 412858.814 -159946.18 -913144.76 .1073091E7        0.0
   8500     .0085  -622390.89 127362.594 459695.618 -332333.02 -749753.48 .1082087E7        0.0
   9000      .009  -523553.62 6109.32059 453516.087 -447406.77 -529662.94 977069.711        0.0
   9500     .0095  -378879.06  -92733.37 397438.435 -490171.81 -286145.69 776317.496        0.0
  10000       .01  -244892.75 -164082.67 333782.476 -497865.15 -80810.072 578675.222        0.0
 ***                                                             Close switch  "X0003C"  to  "XX0009"  after  1.00010000E-02  sec.
  10500     .0105  -218062.09 -296205.68 28775.4146 -324981.09 78143.5914   246837.5 959.180485
  11000      .011  -122228.69 -330389.12 26477.2674 -356866.39 208160.433 148705.953 882.575581
  11500     .0115   -51351.56  -362578.4 26400.5506 -388978.95 311226.836  77752.111 880.018352
  12000      .012  -4706.9416 -392853.46 29295.2612 -422148.72 388146.518 34002.2028 976.508707
  12500     .0125  27205.5631 -403809.27 32018.5087 -435827.78 431014.834 4812.94562 1067.28362
  13000      .013  42564.8193 -415295.02 35302.5896 -450597.61 457859.837 -7262.2297 1176.75299
  13500     .0135  10238.2108 -438654.01 39632.3404 -478286.35 448892.217 29394.1296 1321.07801
  14000      .014   -43228.97 -531653.99 53044.7983 -584698.79 488425.019 96273.7682 1768.15994
  14500     .0145  41141.4733 -504911.12 63754.9671 -568666.08 546052.589 22613.4938 2125.16557
  15000      .015  136096.256 -458009.16 66822.8236 -524831.98 594105.412 -69273.432 2227.42745
  15500     .0155  222069.068 -412901.02 61187.3698 -474088.39 634970.087  -160881.7 2039.57899
  16000      .016  314542.588 -359787.62 51631.0306 -411418.65 674330.208 -262911.56 1721.03435
  16500     .0165  414931.486 -287334.96 40340.9479  -327675.9 702266.441 -374590.54 1344.69826
  17000      .017  517567.181 -190356.87 27193.8201 -217550.69 707924.049 -490373.36 906.460669
  17500     .0175  605080.338 -70240.825  13247.693 -83488.518 675321.163 -591832.64 441.589765
  18000      .018  652731.554 66594.5166 3717.51616 62877.0005 586137.038 -649014.04 123.917205
  18500     .0185  664439.721 209868.118 -808.13004 210676.248 454571.604 -665247.85 -26.937668
  19000      .019  634878.859 340629.289 -6948.6814  347577.97 294249.571 -641827.54 -231.62271
  19500     .0195  566784.412 456387.876  -15065.86 471453.735 110396.536 -581850.27 -502.19532
  20000       .02  461036.335 550507.465 -24184.093 574691.558 -89471.131 -485220.43 -806.13643
  20500     .0205  325884.532 617346.957 -33295.552 650642.509 -291462.43 -359180.08 -1109.8517
  21000      .021  172490.766 652641.806 -41949.452 694591.258 -480151.04 -214440.22 -1398.3151
  21500     .0215  9869.30956 648209.741 -49658.369  697868.11 -638340.43 -59527.679  -1655.279
  22000      .022  -152678.88 602094.455  -54665.88 656760.334 -754773.34 98013.0019  -1822.196
  22500     .0225  -295153.97 531617.275 -56323.421 587940.697 -826771.24 238830.547 -1877.4474
  23000      .023  -406654.97 449633.356 -55054.493 504687.849 -856288.32 351600.474 -1835.1498
  23500     .0235  -486660.46 358476.511 -51929.177 410405.687 -845136.97 434731.279 -1730.9726
  24000      .024  -537012.46  260048.79 -47523.505 307572.295 -797061.25 489488.957 -1584.1168
  24500     .0245  -559699.44 158838.661  -41962.65 200801.312 -718538.11 517736.794  -1398.755
  25000      .025  -557437.83 61335.6622 -35428.765 96764.4269  -618773.5  522009.07 -1180.9588
  25500     .0255  -535826.21 -28039.524 -28124.839 85.3141929 -507786.68 507701.368 -937.49462
  26000      .026  -501398.23 -108588.37  -19643.69 -88944.681 -392809.86  481754.54 -654.78967
  26500     .0265  -458627.95 -181519.22 -9522.7574 -171996.46 -277108.73 449105.195 -317.42525
  27000      .027  -410849.87 -248887.53 1838.52431 -250726.06 -161962.34 412688.396 61.2841438
  27500     .0275  -359536.47 -311359.35 13574.3077 -324933.65 -48177.122 373110.776 452.476922
  28000      .028  -304787.99 -368705.32 24888.7612 -393594.08 63917.3303 329676.754 829.625373
  28500     .0285  -245691.06 -420288.03 35185.8277 -455473.86 174596.974 280876.887 1172.86092
  29000      .029  -180419.75 -465051.36 43964.6738 -509016.04 284631.617  224384.42 1465.48913
  29500     .0295  -107951.06 -501748.02 50803.5959 -552551.62  393796.96 158754.656  1693.4532
  30000       .03  -28537.748 -528291.34 55550.0727 -583841.42 499753.595 84087.8205 1851.66909
  30500     .0305  57626.3873 -540572.21 58280.8705 -598853.08 598198.596 654.483264 1942.69568
  31000      .031  149967.307 -533609.99 59122.9253 -592732.91 683577.293 -90844.382 1970.76418
  31500     .0315  245983.452 -503871.14 58127.7785 -561998.92 749854.595 -187855.67 1937.59262
  32000      .032  341021.688 -450254.19 55291.4725 -505545.67 791275.883 -285730.22 1843.04908
  32500     .0325   429194.96 -373694.11 50645.6375 -424339.75 802889.073 -378549.32 1688.18792
  33000      .033  504554.541  -276611.2 44274.7918 -320885.99 781165.738 -460279.75 1475.82639
  33500     .0335  561713.666 -163011.22 36317.9878 -199329.21 724724.885 -525395.68 1210.59959
  34000      .034  596155.669 -38621.371 27047.7171 -65669.088  634777.04 -569107.95  901.59057
  34500     .0345   604641.64 89527.1561 16889.1365 72638.0196 515114.484  -587752.5 562.971217
  35000      .035  585645.329  213879.85 6310.87473 207568.976 371765.479 -579334.45 210.362491
  35500     .0355  539701.113 327334.238 -4276.1001 331610.338 212366.875 -543977.21 -142.53667
  36000      .036  469379.558 423972.352 -14529.382 438501.734 45407.2056 -483908.94 -484.31274
  36500     .0365  378909.796 499410.151 -24145.512 523555.663 -120500.35 -403055.31  -804.8504
  37000      .037  273629.123 550946.371 -32851.123 583797.493 -277317.25 -306480.25 -1095.0374
  37500     .0375   159310.94 577519.414 -40411.171 617930.586 -418208.47 -199722.11  -1347.039
  38000      .038  41636.4664  579584.67 -46614.807 626199.477  -537948.2 -88251.274 -1553.8269
  38500     .0385  -74039.124 559025.158 -51253.356 610278.514 -633064.28 22785.7685 -1708.4452
  39000      .039   -182874.7 518906.102 -54123.465 573029.567  -701780.8 128751.237 -1804.1155
  39500     .0395  -280848.39 462928.429 -55058.395 517986.824 -743776.82 225789.997 -1835.2798
  40000       .04  -365021.62 394796.328  -53963.93 448760.258 -759817.95 311057.688 -1798.7977
  40500     .0405  -433549.54  317796.38 -50837.235 368633.616 -751345.92 382712.308 -1694.5745
  41000      .041  -485445.34 234660.834  -45772.13 280432.964 -720106.18 439673.211 -1525.7377
  41500     .0415  -520311.52 147582.704 -38956.013 186538.718 -667894.22 481355.507 -1298.5338
  42000      .042  -538168.78 58282.7971 -30652.071 88934.8685 -596451.58 507516.712 -1021.7357
  % % % % % %   Suspended simulation;  plot data space exhausted;  SPY SPACE is required.   LIMBUF =  340000.
  % % % % % %   Suspended simulation;  plot data space exhausted;  SPY SPACE is required.   LIMBUF =  340000.
  +++  Time-sharing disabled.   Send  user-keyed interrupt to silence alarm.
   Current values.  INDBUF  INDBEG  LIMBUF  MFLUSH  NUMDCD  KCARD1  KCARD2
                    339994      50  340000    1000      46       1      50
Plot timespan now in memory (in sec) = 0.00000000E+00   4.24930000E-02
   ++++  Begin plot-data copy from memory to disk.   MFLUSH, INDBUF, N4, Tbeg,  Tend = 1001  339994       1  -1.00000E+00
1.00000E+19
  42500     .0425  -539344.77 -31865.762 -21172.674 -10693.087 -507479.01 518172.095 -705.75581
  43000      .043  -524365.31 -121624.99 -10860.955 -110764.04 -402740.32 513504.356 -362.03185
  43500     .0435  -493852.24 -209607.26 -84.494572 -209522.77 -284244.98 493767.743 -2.8164857
  44000      .044  -448486.34 -294011.03 10770.0754  -304781.1 -154475.31 459256.411 359.002515
  44500     .0445  -389074.53 -372481.68  21309.197 -393790.88 -16592.845 410383.722 710.306566
  45000      .045  -316691.62 -442141.31 31147.6335 -473288.94 125449.685 347839.254 1038.25445
  45500     .0455  -232840.23 -499776.28 39922.0604 -539698.34 266936.051 272762.287 1330.73535
  46000      .046  -139572.52 -542126.53 47305.0852 -589431.62 402554.012 186877.607 1576.83617
  46500     .0465  -39531.981 -566206.22 53022.0799  -619228.3 526674.238 92554.0605 1767.40266
  47000      .047  64088.5645 -569619.91 56867.5707 -626487.48  633708.47 -7220.9938 1895.58569
  47500     .0475  167647.091 -550867.76 58715.4217 -609583.18 718514.851 -108931.67 1957.18072
  48000      .048  267196.033 -509613.44 58520.4479 -568133.89 776809.472 -208675.58  1950.6816
  48500     .0485  358676.867 -446853.18 56313.8602 -503167.04 805530.043 -302363.01 1877.12867
  49000      .049  438165.053 -364930.33 52195.7138 -417126.05 803095.386 -385969.34 1739.85713
  49500     .0495  502132.906 -267390.86 46326.2055 -313717.07 769523.768  -455806.7 1544.20685
  50000       .05  547685.355 -158719.76 38917.5562 -197637.32 706405.118  -508767.8 1297.25187
  50500     .0505   572739.89 -44006.603 30227.5395 -74234.143 616746.493 -542512.35 1007.58465
  51000      .051  576144.094 71424.5274 20553.6038 50870.9236 504719.567 -555590.49 685.120127
  51500     .0515  557733.258 182391.991 10225.5731 172166.418 375341.267 -547507.68 340.852436
  52000      .052  518327.082 284204.657 -403.78303  284608.44 234122.425 -518730.86 -13.459434
  52500     .0525  459663.069 372938.075 -10969.584 383907.659 86724.9937 -470632.65 -365.65279
  53000      .053  384272.221 445604.872 -21106.487 466711.359 -61332.651 -405378.71 -703.54957
  53500     .0535  295312.215 500208.685 -30461.158 530669.842 -204896.47 -325773.37 -1015.3719
  54000      .054  196378.636  535696.12 -38705.139 574401.259 -339317.48 -235083.78 -1290.1713
  54500     .0545  91315.5606 551837.606 -45546.965 597384.571 -460522.05 -136862.53 -1518.2322
  55000      .055  -15958.247 549070.963 -50742.433 599813.396 -565029.21 -34784.186 -1691.4144
  55500     .0555  -121599.85 528335.765 -54102.887 582438.652 -649935.61 67496.9617 -1803.4296
  56000      .056  -221968.15  490921.15 -55501.925 546423.075  -712889.3 166466.226 -1850.0642
  56500     .0565  -313725.67 438347.852 -54880.735 493228.587 -752073.52  258844.93 -1829.3578
 ***                                                             Open  switch  "X0001B"  to  "X0002B"  after  5.69700000E-02  sec.
  57000      .057  -393915.95 372301.092 -52251.752 424552.844 -766217.04 341664.196 -1741.7251
  57500     .0575  -460019.11 294619.055 -47700.087 342319.142 -754638.17 412319.025 -1590.0029
  58000      .058   -509991.8 207325.816 -41382.148 248707.964 -717317.61  468609.65 -1379.4049
  58500     .0585  -542299.35 112686.293 -33521.018 146207.311 -654985.64 508778.329 -1117.3673
  59000      .059  -563400.46 33684.3788 -25361.491 59045.8696 -597084.84 538038.971 -845.38303
 ***                                                             Open  switch  "X0001A"  to  "X0002A"  after  5.93530000E-02  sec.
  59500     .0595  -558838.44 -27834.217 -15669.466 -12164.751 -531004.22 543168.971 -522.31554
  60000       .06  -532942.07 -88263.263 -5019.5574 -83243.706  -444678.8 527922.509 -167.31858
 ***                                                             Open  switch  "X0001C"  to  "X0002C"  after  6.01410000E-02  sec.
  60500     .0605  -489723.61 -151125.64 5827.26204  -156952.9 -338597.97 495550.867 194.242068
  61000      .061  -430611.15 -215098.28 16489.8093 -231588.09 -215512.87 447100.961  549.66031
  61500     .0615   -390901.6 -275658.58 28257.5499 -303916.13 -115243.02  419159.15 941.918328
  62000      .062  -331245.14 -330747.68 35930.2906 -366677.97 -497.45907 367175.427 1197.67635
  62500     .0625  -264391.48 -355289.83  35318.693 -390608.53 90898.3495 299710.177 1177.28977
  63000      .063  -208024.06 -392845.31 29469.7547 -422315.07  184821.25 237493.817 982.325157
  63500     .0635  -135083.83 -423898.13 23105.1023 -447003.23 288814.297 158188.937 770.170075
  64000      .064  -49854.868 -446764.01 16352.0672 -463116.07 396909.139 66206.9354 545.068906
  64500     .0645  37860.3271 -464043.49 9058.05785 -473101.55 501903.819 -28802.269 301.935262
  65000      .065  107800.069 -469023.91 1872.87798 -470896.79  576823.98 -105927.19  62.429266
  65500     .0655  176075.184 -475629.77 -5010.4615 -470619.31 651704.954 -181085.65 -167.01538
  66000      .066  200186.714 -493506.18 -9508.6913 -483997.49 693692.892 -209695.41 -316.95638
  66500     .0665  237064.991 -499925.69 -9822.1686 -490103.52 736990.679 -246887.16 -327.40562
  67000      .067  291425.873 -488299.93 -8658.4762 -479641.45 779725.801 -300084.35 -288.61587
  67500     .0675  350707.953 -464969.79  -6383.785 -458586.01 815677.743 -357091.74 -212.79283
  68000      .068  398191.415 -433380.41  -2829.564 -430550.85  831571.83 -401020.98 -94.318799
  68500     .0685  432983.071 -387960.24 1822.18304 -389782.42 820943.311 -431160.89 60.7394346
  69000      .069  457872.536 -338475.34 7092.93955 -345568.28 796347.877  -450779.6 236.431318
  69500     .0695  463173.135 -283544.07  12626.773 -296170.84 746717.202 -450546.36 420.892432
  70000       .07  482350.929 -218566.76 15134.7646 -233701.53 700917.694 -467216.16 504.492153
  70500     .0705  491835.814 -159334.17 14862.2554 -174196.42  651169.98 -476973.56 495.408512
  71000      .071  496532.874   -99385.4 13708.2598 -113093.66 595918.274 -482824.61 456.941992
  71500     .0715  489392.592 -28753.553 12276.4614 -41030.014 518146.145 -477116.13 409.215379
  72000      .072   474162.79  48427.698 10083.5351  38344.163 425735.092 -464079.25 336.117835
  72500     .0725  443472.894 123609.203 7250.09537 116359.108 319863.691  -436222.8 241.669846
  73000      .073  403521.971 195155.471 4111.06304 191044.408   208366.5 -399410.91 137.035435
  73500     .0735  354685.516 248404.338 916.926677 247487.412 106281.177 -353768.59 30.5642226
  74000      .074  299209.604 289312.543 -815.28368 290127.826 9897.06134 -300024.89 -27.176123
  74500     .0745  248056.129 328964.155 -1387.3645  330351.52 -80908.026 -249443.49 -46.245484
  75000      .075   189256.91  375812.99 -1559.4787 377372.468 -186556.08 -190816.39 -51.982624
  75500     .0755  126332.485 416822.436  -1085.135 417907.571 -290489.95 -127417.62 -36.171165
  76000      .076  54698.4132 454432.804 302.802943 454130.001 -399734.39  -54395.61 10.0934314
  76500     .0765  -13412.452 483060.433 2274.74296  480785.69 -496472.88 15687.1948 75.8247652
  77000      .077  -79956.431 493567.946 4861.03426 488706.912 -573524.38 84817.4655 162.034475
  77500     .0775  -136513.13 496130.537 7040.09007 489090.447 -632643.66 143553.218 234.669669
  78000      .078  -189696.98 489373.015 8092.52086 481280.494   -679070. 197789.504 269.750695
  78500     .0785  -248107.17 481959.831 8435.87417 473523.957   -730067. 256543.046 281.195806
  79000      .079  -300591.22 467686.895 8616.90292 459069.992 -768278.11 309208.118 287.230097
  79500     .0795  -350188.93 453625.405  8439.7722 445185.633 -803814.34 358628.704  281.32574
  80000       .08  -389185.35 427951.397 7695.97187 420255.425 -817136.75 396881.326 256.532396
  80500     .0805  -417928.83 388285.167 6680.39403 381604.773   -806214. 424609.227 222.679801
  81000      .081  -437941.33 337131.458 5404.27555 331727.182 -775072.79 443345.605 180.142518
  81500     .0815  -456781.46 276745.732 4351.75955 272393.973 -733527.19 461133.215 145.058652
  82000      .082  -472680.05 219000.123 3664.79719 215335.326 -691680.18 476344.852 122.159906
  82500     .0825   -477528.1 160660.542 3094.02829 157566.514 -638188.64  480622.13 103.134276
  83000      .083  -476600.96 104969.087 2628.43277 102340.655 -581570.05 479229.394 87.6144257
  83500     .0835  -463421.69 42507.2636  2578.6318 39928.6318 -505928.96 466000.326 85.9543932
  84000      .084  -437132.42 -24158.687 3018.92292  -27177.61 -412973.74 440151.346 100.630764
  84500     .0845  -403298.04 -94576.818 3907.69021 -98484.508 -308721.22 407205.729  130.25634
  % % % % % %   Suspended simulation;  plot data space exhausted;  SPY SPACE is required.   LIMBUF =  340000.
  % % % % % %   Suspended simulation;  plot data space exhausted;  SPY SPACE is required.   LIMBUF =  340000.
  +++  Time-sharing disabled.   Send  user-keyed interrupt to silence alarm.
   Current values.  INDBUF  INDBEG  LIMBUF  MFLUSH  NUMDCD  KCARD1  KCARD2
                    339994      50  340000    1001      46       1      50
Plot timespan now in memory (in sec) = 4.24919985E-02   8.49850000E-02
   ++++  Begin plot-data copy from memory to disk.   MFLUSH, INDBUF, N4, Tbeg,  Tend = 1002  339994       1  -1.00000E+00
1.00000E+19
  85000      .085  -366634.07 -160926.07 4956.26401 -165882.34   -205708. 371590.337   165.2088
  85500     .0855  -326890.89   -220066.  5627.3193 -225693.32 -106824.89 332518.212  187.57731
  86000      .086  -282605.61 -274010.11 5889.73251 -279899.84 -8595.4978 288495.338 196.324417
  86500     .0865  -234208.86 -320581.19 6020.13742 -326601.32 86372.3232    240229. 200.671247
  87000      .087  -175414.38 -364173.75 6081.47321 -370255.22 188759.363 181495.855 202.715774
  87500     .0875  -109044.82 -403539.31 5954.69826 -409494.01 294494.484 114999.522 198.489942
  88000      .088  -41390.427 -439137.51 5731.66111 -444869.17 397747.082 47122.0884  191.05537
  88500     .0885  20997.2329 -464128.76 5291.52692 -469420.28 485125.989 -15705.706 176.384231
  89000      .089  78604.3536 -481575.36 4711.88861 -486287.25 560179.717 -73892.465 157.062954
  89500     .0895  132218.727 -489319.29 4132.90708  -493452.2 621538.022 -128085.82 137.763569
  90000       .09  185866.565 -487503.18 3556.51195 -491059.69 673369.743 -182310.05 118.550398
  90500     .0905  242031.511 -479945.29 2971.24069 -482916.54 721976.806 -239060.27 99.0413565
  91000      .091  296341.258 -466577.99 2579.10222  -469157.1 762919.251 -293762.16 85.9700742
  91500     .0915  345096.336 -446443.85 2520.11436 -448963.97 791540.187 -342576.22 84.0038121
  92000      .092  381601.614 -415005.26 2655.35408 -417660.61 796606.869 -378946.26 88.5118026
  92500     .0925  409688.109 -376975.23  2924.2512 -379899.48 786663.338 -406763.86   97.47504
  93000      .093  428548.873 -330391.04 3125.40252 -333516.44 758939.914 -425423.47 104.180084
  93500     .0935  443007.095 -279444.43 3163.62478 -282608.05 722451.522 -439843.47 105.454159
  94000      .094  454268.415 -226752.85 3167.97418 -229920.83 681021.269 -451100.44 105.599139
  94500     .0945  460124.575 -171140.72 3280.70311 -174421.42 631265.292 -456843.87  109.35677
  95000      .095   457703.73 -111496.73 3415.83276 -114912.56 569200.456  -454287.9 113.861092
  95500     .0955  441876.007 -46395.312 3468.73666 -49864.049  488271.32 -438407.27 115.624555
  96000      .096  417770.477 18898.3245 3411.86314 15486.4614 398872.152 -414358.61 113.728771
  96500     .0965  384071.038 84669.8004 3229.20446  81440.596 299401.237 -380841.83 107.640149
  97000      .097  346805.937 146069.412 2980.49526 143088.917 200736.525 -343825.44 99.3498419
  97500     .0975    307661.8 202524.195 2750.52456  199773.67 105137.605 -304911.27  91.684152
  98000      .098  265233.963 255209.056 2570.87824 252638.178 10024.9072 -262663.08 85.6959414
  98500     .0985  216163.967 305437.675 2441.77973 302995.895 -89273.707 -213722.19 81.3926576
  99000      .099  159371.474 353367.245 2408.27494  350958.97 -193995.77  -156963.2 80.2758314
  99500     .0995  99565.1398 395172.651 2450.70129  392721.95 -295607.51 -97114.438  81.690043
 100000       0.1  37149.6008 430580.867 2550.23613 428030.631 -393431.27 -34599.365 85.0078711
 100500     .1005   -22271.14  455642.14 2662.91856 452979.221 -477913.28 24934.0587 88.7639521
 101000      .101  -78042.277  470938.81 2774.35004  468164.46 -548981.09 80816.6269 92.4783348
 101500     .1015  -131632.26 477892.857 2921.04634 474971.811 -609525.11 134553.303 97.3682113
 102000      .102  -185932.57 479673.912 3108.76025 476565.151 -665606.48 189041.325 103.625342
 102500     .1025  -238868.06  475950.27 3299.46924 472650.801 -714818.33 242167.527 109.982308
 103000      .103  -288062.18 464686.307 3438.45305 461247.854 -752748.49 291500.635 114.615102
 103500     .1035  -331716.03 445240.784 3519.13554 441721.649 -776956.82 335235.169 117.304518
 104000      .104  -366390.17 415057.178 3542.43356 411514.744 -781447.35 369932.606 118.081119
 104500     .1045  -392776.77 376029.422 3550.54276 372478.879 -768806.19 396327.316 118.351425
 105000      .105  -412514.16 330582.615 3576.32527  327006.29 -743096.78 416090.489 119.210842
 105500     .1055  -428525.72 283081.225  3571.2673 279509.957 -711606.94 432096.987 119.042243
 106000      .106  -438102.28 232394.292 3516.96311 228877.328 -670496.57 441619.245 117.232104
 106500     .1065  -440930.75  178485.23 3449.13054 175036.099 -619415.98  444379.88 114.971018
 107000      .107  -434594.67 120653.457 3393.95712   117259.5 -555248.12 437988.624 113.131904
 107500     .1075  -417909.51 57935.3755 3369.42864 54565.9469 -475844.88 421278.934 112.314288
 108000      .108  -392919.67 -7007.8031 3391.14857 -10398.952 -385911.87 396310.818 113.038286
 108500     .1085  -362192.47 -71349.909 3434.12663 -74784.036 -290842.56 365626.592 114.470888
 109000      .109   -328848.2 -131221.27 3440.12251 -134661.39 -197626.93 332288.319  114.67075
 109500     .1095  -290372.69 -188056.42 3416.89274 -191473.31 -102316.27  293789.58 113.896425
 110000       .11  -247362.81 -240763.75 3382.01639 -244145.77 -6599.0545 250744.825  112.73388
 110500     .1105  -197917.06 -290674.79 3327.76279 -294002.55   92757.73 201244.825 110.925426
 111000      .111  -142653.88 -337980.82 3274.07437  -341254.9 195326.945 145927.953 109.135812
 111500     .1115  -84631.615 -380434.17 3238.89307 -383673.06 295802.554 87870.5085 107.963102
 112000      .112  -27152.735 -415524.35 3197.66847 -418722.02 388371.618 30350.4037 106.588949
 112500     .1125  27503.2425 -441009.92 3112.16242 -444122.08 468513.158  -24391.08 103.738747
 113000      .113  81442.2503 -458630.52 2979.31872 -461609.83 540072.766 -78462.932 99.3106239
 113500     .1135  133978.598 -467902.64 2807.21895 -470709.86 601881.239 -131171.38  93.573965
 114000      .114  186452.573 -471013.59 2623.26445 -473636.85 657466.163 -183829.31 87.4421482
 114500     .1145  237627.417 -467971.23 2475.66578  -470446.9 705598.647 -235151.75 82.5221928
 115000      .115  284503.094 -457530.07 2386.00454 -459916.07 742033.161 -282117.09 79.5334846
 115500     .1155   323927.81  -437929.2 2317.35907 -440246.56 761857.014 -321610.45 77.2453023
 116000      .116  355329.092 -409152.57 2231.13654 -411383.71 764481.665 -353097.96 74.3712181
 116500     .1165  380469.894 -373335.42 2116.56902 -375451.99 753805.316 -378353.33 70.5523006
 117000      .117   399629.82 -331257.23 1989.37769 -333246.61 730887.053 -397640.44 66.3125897
 117500     .1175  414293.589 -285448.97 1880.47788 -287329.45  699742.56 -412413.11  62.682596
 118000      .118  423395.863 -236041.67 1816.41166 -237858.09 659437.538 -421579.45 60.5470552
 118500     .1185  424746.656 -182757.49 1802.42483 -184559.92 607504.151 -422944.23 60.0808278
 119000      .119  416081.963 -124626.59 1796.82642 -126423.42 540708.557 -414285.14 59.8942139
 119500     .1195  398778.325 -63388.886 1772.50668 -65161.392  462167.21 -397005.82 59.0835559
 120000       .12  374591.381 -1112.5415 1724.30857 -2836.8501 375703.923 -372867.07 57.4769524
 120500     .1205  345170.683  60585.443 1663.82103  58921.622  284585.24 -343506.86 55.4607008
 121000      .121  312223.659 119471.101 1612.15245 117858.949 192752.558 -310611.51 53.7384151
 121500     .1215  275014.399 175531.445 1595.37368 173936.071  99482.954 -273419.02 53.1791226
 122000      .122   232357.44 228922.948 1622.69955 227300.249 3434.49159 -230734.74  54.089985
 122500     .1225  183193.866 280338.273 1660.10968 278678.163 -97144.407 -181533.76 55.3369895
 123000      .123  130260.959 327488.005 1688.34499  325799.66 -197227.05 -128572.61 56.2781664
 123500     .1235  75289.5971 369008.484 1704.34074 367304.143 -293718.89 -73585.256 56.8113579
 124000      .124  20665.4733 403302.332 1714.60846 401587.723 -382636.86 -18950.865 57.1536155
 124500     .1245  -32140.958 429199.958 1739.39999 427460.558 -461340.92 33880.3578 57.9799996
 125000      .125  -83750.714 447450.099  1802.6438 445647.456 -531200.81 85553.3573 60.0881267
 125500     .1255  -134899.94  458951.89 1897.30176 457054.588 -593851.83 136797.244  63.243392
 126000      .126  -185826.06 464550.366 1987.83403 462562.532 -650376.42 187813.891 66.2611342
 126500     .1265  -233635.82 462490.451 2059.88158 460430.569 -696126.27 235695.705 68.6627194
 127000      .127  -276993.92 452460.045 2114.90887 450345.137 -729453.96 279108.825 70.4969623
  % % % % % %   Suspended simulation;  plot data space exhausted;  SPY SPACE is required.   LIMBUF =  340000.
  % % % % % %   Suspended simulation;  plot data space exhausted;  SPY SPACE is required.   LIMBUF =  340000.
  +++  Time-sharing disabled.   Send  user-keyed interrupt to silence alarm.
   Current values.  INDBUF  INDBEG  LIMBUF  MFLUSH  NUMDCD  KCARD1  KCARD2
                    339994      50  340000    1002      46       1      50
Plot timespan now in memory (in sec) = 8.49839970E-02   1.27477000E-01
   ++++  Begin plot-data copy from memory to disk.   MFLUSH, INDBUF, N4, Tbeg,  Tend = 1003  339994       1  -1.00000E+00
1.00000E+19
 127500     .1275  -313822.65 433592.034 2159.33586 431432.698 -747414.68 315981.985  71.977862
 128000      .128  -343536.51 406167.026  2210.5039 403956.523 -749703.54 345747.015 73.6834632
 128500     .1285  -367190.11 371867.039 2281.83883   369585.2 -739057.15 369471.948 76.0612944
 129000      .129  -385915.27 332516.884 2355.46091 330161.423 -718432.16 388270.735 78.5153636
 129500     .1295  -399684.36 289133.959 2408.05254 286725.906 -688818.32  402092.41  80.268418
 130000       .13  -406463.49 240930.503 2436.19711 238494.306 -647393.99 408899.687 81.2065704
 130500     .1305  -405638.89 188398.224 2446.24613 185951.977 -594037.11 408085.135 81.5415376
 131000      .131  -396203.53 131437.956 2446.69096 128991.265 -527641.49 398650.221 81.5563653
 131500     .1315   -378847.9 71398.7505 2452.41882 68946.3316 -450246.65 381300.316  81.747294
 132000      .132  -355360.62 10416.9725 2470.46162 7946.51086 -365777.59 357831.083 82.3487206
 132500     .1325  -327539.27 -49267.721 2480.17738 -51747.899 -278271.55 330019.444 82.6725793
 133000      .133  -295333.71 -106920.18 2465.77885 -109385.96 -188413.53 297799.493 82.1926284
 133500     .1335  -257899.15 -162767.27 2427.37326 -165194.64 -95131.883 260326.524 80.9124421
 134000      .134  -215288.76 -216293.77 2373.11057 -218666.88  1005.0064 217661.871 79.1036857
 134500     .1345  -167592.53 -267380.26 2314.67712 -269694.94 99787.7269 169907.208 77.1559039
 135000      .135  -116507.63 -314492.55 2264.94197  -316757.5 197984.925 118772.571 75.4980658
 135500     .1355  -64249.385 -355835.94 2224.26445  -358060.2 291586.551 66473.6498 74.1421485
 136000      .136  -12822.381 -389662.71 2169.31767 -391832.03 376840.326 14991.6988  72.310589
 136500     .1365  38011.8414 -416166.56 2088.80419 -418255.36 454178.398 -35923.037 69.6268063
 137000      .137  88377.8031 -435762.08 1988.65377 -437750.73 524139.883 -86389.149 66.2884591
 137500     .1375  138088.075 -448647.87 1881.19644 -450529.07 586735.945 -136206.88  62.706548
 138000      .138  186574.836 -455083.45 1780.86114 -456864.31 641658.284 -184793.97 59.3620378
 138500     .1385  231921.633  -454142.2  1698.3058 -455840.51 686063.833 -230223.33 56.6101934
 139000      .139   272178.28 -444943.53 1627.81062 -446571.35 717121.814 -270550.47 54.2603539
 139500     .1395  305965.987 -426900.24 1547.17597 -428447.42 732866.231 -304418.81 51.5725322
 140000       .14  334121.766 -401352.05 1450.53599 -402802.58 735473.814 -332671.23 48.3511998
 140500     .1405  356891.013  -369304.7 1347.42476 -370652.13 726195.717 -355543.59 44.9141586
 141000      .141  374556.833 -331859.39 1249.99022 -333109.38 706416.223 -373306.84 41.6663406
 141500     .1415  386769.524 -289790.99 1171.49828 -290962.49 676560.519 -385598.03 39.0499428
 142000      .142  392164.595 -242956.35 1119.57836 -244075.93 635120.949 -391045.02 37.3192788
 142500     .1425  389631.605  -191321.2 1082.76408 -192403.97 580952.809 -388548.84 36.0921361
 143000      .143  379024.068 -135411.01 1040.96235 -136451.97 514435.077 -377983.11 34.6987448
 143500     .1435  361959.673  -77248.29 990.914125 -78239.204 439207.963 -360968.76 33.0304708
 144000      .144  339306.469 -18205.811 941.709431  -19147.52 357512.279 -338364.76 31.3903144
 144500     .1445  312003.718 40208.3228  904.30034 39304.0225 271795.395 -311099.42 30.1433447
 145000      .145  280175.208  97178.112 890.424362 96287.6877 182997.096 -279284.78 29.6808121
 145500     .1455  243253.434 152566.684 904.180593 151662.504 90686.7495 -242349.25 30.1393531
 146000      .146  201000.959 206192.234 929.511605 205262.722 -5191.2744 -200071.45 30.9837202
 146500     .1465  154430.644 257084.688 949.446299 256135.242 -102654.04  -153481.2   31.64821
 147000      .147  105592.571 303421.732 963.064865 302458.667 -197829.16 -104629.51 32.1021622
 147500     .1475  55808.0497 344119.577 978.852399 343140.724 -288311.53 -54829.197 32.6284133
 148000      .148  6284.27508 378107.207 1006.78986 377100.417 -371822.93 -5277.4852  33.559662
 148500     .1485  -42719.257 405233.032 1055.66696 404177.365 -447952.29  43774.924 35.1888987
 149000      .149  -91375.113 425797.458 1124.73136 424672.726 -517172.57 92499.8446 37.4910454
 149500     .1495  -139549.94 440091.048  1195.6631 438895.384 -579640.98   140745.6 39.8554367
 150000       .15  -185753.68 447459.633 1255.48584 446204.147 -633213.31 187009.168 41.8495281
 150500     .1505  -228217.32 447006.297 1305.50421 445700.793 -675223.62 229522.826 43.5168069
 151000      .151  -265805.67 438471.305 1353.18647 437118.118 -704276.97 267158.854 45.1062156
 151500     .1515    -297749. 421786.402 1406.89512 420379.507  -719535.4 299155.898 46.8965041
 152000      .152  -324264.97 397811.484 1472.41476 396339.069 -722076.46 325737.387 49.0804919
 152500     .1525  -345788.24 367625.927 1545.13763  366080.79 -713414.17 347333.381 51.5045876
 153000      .153  -362421.29 332199.582 1607.62469 330591.957 -694620.87 364028.912 53.5874896
 153500     .1535  -372986.31 291481.357 1651.45396 289829.903 -664467.66 374637.761 55.0484654
 154000      .154  -376593.16 245577.735 1680.49378 243897.241 -622170.89  378273.65 56.0164594
 154500     .1545  -372860.64 195010.209 1702.16068 193308.048 -567870.85 374562.802 56.7386894
 155000      .155   -361949.5 140601.085 1724.13101 138876.954 -502550.59 363673.631 57.4710337
 155500     .1555  -344891.53 83907.5574 1750.47996 82157.0775 -428799.09 346642.009  58.349332
 156000      .156  -322730.22 26474.2461 1774.00419  24700.242 -349204.47 324504.227 59.1334729
 156500     .1565  -296026.44 -30501.813 1780.01825 -32281.831 -265524.63 297806.461 59.3339418
 157000      .157  -264266.92 -86819.158 1764.86078 -88584.019 -177447.76 266031.779 58.8286928
 157500     .1575  -227490.58 -141953.39 1735.10614  -143688.5 -85537.194 229225.689 57.8368715
 158000      .158  -186106.14 -195202.72 1698.72826 -196901.45  9096.5764 187804.869 56.6242752
 158500     .1585  -141106.62 -245531.98 1662.83161 -247194.81 104425.357 142769.453 55.4277203
 159000      .159  -94088.984 -291467.75 1629.84314 -293097.59 197378.765 95718.8268 54.3281046
 159500     .1595  -46458.647  -331739.9 1590.77871 -333330.68 285281.258 48049.4257  53.025957
 160000       .16  1102.40161 -365696.11 1534.66872 -367230.78 366798.515  432.26711 51.1556239
 160500     .1605  48710.9081 -393519.84 1462.25947  -394982.1 442230.752 -47248.649 48.7419824
 161000      .161  95924.1604 -415054.51 1381.96317 -416436.47 510978.667 -94542.197  46.065439
 161500     .1615  142052.155 -430114.07 1301.99513 -431416.06 572166.222 -140750.16 43.3998376
 162000      .162  185880.901 -438169.57 1228.53533  -439398.1 624050.469 -184652.37 40.9511777
 162500     .1625  225924.291 -438520.57 1162.10565 -439682.68 664444.862 -224762.19  38.736855
 163000      .163  261065.037 -430769.65 1092.82862 -431862.48 691834.687 -259972.21 36.4276208
 163500     .1635  291120.872 -415303.88 1013.28611 -416317.17 706424.756 -290107.59 33.7762037
 164000      .164  316393.462 -393052.16 927.223758 -393979.38 709445.618 -315466.24 30.9074586
 164500     .1645  336732.303 -364619.89 843.392969 -365463.29 701352.196 -335888.91  28.113099
 165000      .165  351801.018 -330581.62 769.391396 -331351.01 682382.634 -351031.63 25.6463799
 165500     .1655  360827.263 -291135.47 709.726256  -291845.2 651962.735 -360117.54 23.6575419
 166000      .166  363043.808  -246456.8 662.251436 -247119.05 609500.604 -362381.56 22.0750479
 166500     .1665  358163.927 -197025.69 616.459457 -197642.15 555189.617 -357547.47 20.5486486
 167000      .167  346892.638 -144098.26 567.407274 -144665.66 490990.895 -346325.23 18.9135758
 167500     .1675  330083.451 -89101.268 520.154483 -89621.423 419184.719  -329563.3 17.3384828
 168000      .168  308223.939 -33123.703 482.493695 -33606.197 341347.642 -307741.45 16.0831232
 168500     .1685  281587.255 22901.8017 460.387292 22441.4144 258685.453 -281126.87 15.3462431
 169000      .169  250068.937 78465.5186 455.920395 78009.5982 171603.419 -249613.02 15.1973465
 169500     .1695   213716.13 133046.819 463.905532 132582.913 80669.3113 -213252.22 15.4635177
  % % % % % %   Suspended simulation;  plot data space exhausted;  SPY SPACE is required.   LIMBUF =  340000.
  % % % % % %   Suspended simulation;  plot data space exhausted;  SPY SPACE is required.   LIMBUF =  340000.
  +++  Time-sharing disabled.   Send  user-keyed interrupt to silence alarm.
   Current values.  INDBUF  INDBEG  LIMBUF  MFLUSH  NUMDCD  KCARD1  KCARD2
                    339994      50  340000    1003      46       1      50
Plot timespan now in memory (in sec) = 1.27476007E-01   1.69969000E-01
   ++++  Begin plot-data copy from memory to disk.   MFLUSH, INDBUF, N4, Tbeg,  Tend = 1004  339994       1  -1.00000E+00
1.00000E+19
 170000       .17  173087.266 185865.342 473.721861  185391.62 -12778.076 -172613.54 15.7907287
 170500     .1705  129589.074 235521.105 482.230372 235038.875 -105932.03 -129106.84 16.0743457
 171000      .171  84458.0981 280786.477 494.726895 280291.751 -196328.38 -83963.371 16.4908965
 171500     .1715  38573.9919 320800.976 517.431375 320283.545 -282226.98 -38056.561 17.2477125
 172000      .172  -7496.0305   355013.2 554.220296 354458.979 -362509.23 8050.25084 18.4740099
 172500     .1725  -53531.181 383296.628  604.75063 382691.877 -436827.81 54135.9321 20.1583543
 173000      .173  -99130.679  405519.03 661.422739 404857.607 -504649.71 99792.1014 22.0474246
 173500     .1735  -143404.38 421302.908 714.440281 420588.468 -564707.29 144118.819  23.814676
 174000      .174  -184898.18 429858.652 762.362948 429096.289 -614756.83 185660.542 25.4120983
 174500     .1745  -222570.16 430778.726 810.361918 429968.364 -653348.89 223380.524 27.0120639
 175000      .175  -255769.31 424010.924 863.291604 423147.632 -679780.23   256632.6 28.7763868
 175500     .1755  -284252.57 409888.448 923.350032 408965.098 -694141.01 285175.916 30.7783344
 176000      .176  -308070.03 389074.692 988.442731 388086.249 -697144.73 309058.477  32.948091
 176500     .1765  -327101.96 362187.076  1049.9148 361137.161 -689289.04 328151.877 34.9971599
 177000      .177  -340761.99 329535.272 1099.95814 328435.314 -670297.26 341861.944 36.6652713
 177500     .1775  -348205.19 291183.921 1139.22043 290044.701 -639389.11 349344.407 37.9740142
 178000      .178  -349108.25 247613.074 1173.06412  246440.01 -596721.32 350281.311 39.1021374
 178500     .1785  -343543.14 199575.109 1205.71892  198369.39 -543118.25 344748.863 40.1906307
 179000      .179  -332005.25  148162.64 1238.54665 146924.093 -480167.89 333243.797 41.2848883
 179500     .1795  -315163.39 94611.4742  1268.6012  93342.873 -409774.86  316431.99 42.2867065
 180000       .18   -293483.7 39999.0517 1287.71677 38711.3349 -333482.75 294771.418 42.9238925
 180500     .1805  -266956.09 -15019.664 1291.02776 -16310.692 -251936.42 268247.116 43.0342588
 181000      .181  -235536.69 -69935.711 1281.54767 -71217.259 -165600.97 236818.233 42.7182556
 181500     .1815  -199669.71 -123922.45 1265.11895 -125187.56 -75747.262 200934.827 42.1706317
 182000      .182   -160128.7 -176003.63 1245.83655 -177249.46 15874.9251 161374.536 41.5278852
 182500     .1825  -118017.87 -224991.83 1224.77611 -226216.61 106973.958 119242.649 40.8258703
 183000      .183  -74433.966  -269765.4 1198.70576 -270964.11 195331.434 75632.6722 39.9568585
 183500     .1835  -30172.291 -309498.19 1160.93056 -310659.12 279325.894 31333.2217 38.6976854
 184000      .184  14472.8409 -343871.63 1109.66599  -344981.3 358344.475 -13363.175 36.9888663
 184500     .1845  59123.3925 -372643.53 1049.87457  -373693.4 431766.919 -58073.518 34.9958191
 185000      .185  103037.313 -395379.34 987.635699 -396366.97 498416.649 -102049.68   32.92119
 185500     .1855  145255.363 -411584.78 926.769174 -412511.55 556840.146 -144328.59 30.8923058
 186000      .186  184647.167 -420680.97  867.96559 -421548.94 605328.139  -183779.2 28.9321863
 186500     .1865  220272.546 -422293.83 807.683368 -423101.51 642566.377 -219464.86 26.9227789
 187000      .187  251609.249 -416428.08 740.799755 -417168.88 668037.333 -250868.45 24.6933252
 187500     .1875  278618.637  -403570.7 667.895972  -404238.6 682189.338 -277950.74 22.2631991
 188000      .188  301123.253  -384188.5 594.821822 -384783.32 685311.754 -300528.43 19.8273941
 188500     .1885  318707.502 -358615.61 527.129918 -359142.74 677323.111 -318180.37 17.5709973
 189000      .189    330831.4 -327128.17  467.69106 -327595.86 657959.569 -330363.71  15.589702
 189500     .1895   336930.18 -289973.53 416.183055 -290389.72 626903.713   -336514. 13.8727685
 190000       .19   336740.32 -247624.25 368.357135 -247992.61 584364.571 -336371.96 12.2785712
 190500     .1905   330474.55 -200915.42 320.184379  -201235.6 531389.969 -330154.37 10.6728126
 191000      .191  318719.208 -151009.44 273.494543 -151282.94 469728.651 -318445.71 9.11648477
 191500     .1915  301865.122 -98909.839 233.787527 -99143.627 400774.961 -301631.33 7.79291756
 192000      .192  280121.852 -45456.893 205.228882 -45662.121 325578.744 -279916.62 6.84096274
 192500     .1925  253597.966 8643.85521 189.063556 8454.79166  244954.11  -253408.9 6.30211854
 193000      .193   222450.69  62732.485 183.388367 62549.0966 159718.205  -222267.3 6.11294556
 193500     .1935  187144.637  115993.44 183.044794 115810.396  71151.196 -186961.59 6.10149313
 194000      .194  148578.681 167341.672 184.670978 167157.001  -18762.99 -148394.01 6.15569927
 194500     .1945  107825.117 215588.265 190.474329  215397.79 -107763.15 -107634.64 6.34914429
 195000      .195  65676.8467 259839.415 204.839614 259634.576 -194162.57 -65472.007 6.82798712
 195500     .1955  22724.3816 299433.534 230.185974 299203.348 -276709.15 -22494.196 7.67286579
 196000      .196  -20580.776 333928.024 266.023422    333662.  -354508.8 20846.7994 8.86744741
 196500     .1965  -63736.784 362956.074 308.903608  362647.17 -426692.86 64045.6879 10.2967869
 197000      .197  -106001.15 386070.689  353.15641 385717.533 -492071.84 106354.306 11.7718803
 197500     .1975  -146316.27 402653.659 396.159347   402257.5 -548969.93  146712.43 13.2053116
 198000      .198  -183677.81 412173.122 440.272101  411732.85 -595850.94 184118.085 14.6757367
 198500     .1985  -217440.67 414455.438 488.786169 413966.652 -631896.11 217929.455 16.2928723
 199000      .199  -247208.83 409586.238 542.732258 409043.505 -656795.07 247751.561 18.0910753
 199500     .1995  -272764.58 397881.247 600.454076 397280.793 -670645.83 273365.036 20.0151359
 200000       0.2  -293855.86 379707.392 657.673076 379049.719 -673563.25 294513.529 21.9224359
 200500     .2005  -310056.34 355356.434 709.146201 354647.287 -665412.78  310765.49 23.6382067
 201000      .201   -320753.2 324989.797 753.521612 324236.276 -645742.99 321506.719 25.1173871
 201500     .2015  -325553.42 288938.469 793.614182 288144.855 -614491.89 326347.035 26.4538061
 202000      .202  -324443.18 247844.124 832.190576 247011.934  -572287.3  325275.37 27.7396859
 202500     .2025  -317660.83 202548.932 869.672202  201679.26 -520209.76 318530.501 28.9890734
 203000      .203  -305599.45 154034.026  904.11428 153129.912 -459633.48 306503.567 30.1371427
 203500     .2035  -288592.53 103233.123 931.396763 102301.727 -391825.65 289523.925 31.0465588
 204000      .204  -266806.31 50927.0596 947.687984 49979.3716 -317733.37 267753.996 31.5895995
 204500     .2045  -240299.84  -2254.919 953.419818 -3208.3388 -238044.92 241253.256 31.7806606
 205000      .205  -209406.59 -55536.409 952.183567 -56488.593 -153870.18 210358.776 31.7394522
 205500     .2055  -174771.78  -107957.6 946.753246 -108904.35 -66814.182 175718.535 31.5584415
 206000      .206  -137220.83 -158476.61 937.566565 -159414.17 21255.7822 138158.392 31.2522188
 206500     .2065  -97630.973 -206060.64 922.992237 -206983.64 108429.671 98553.9651 30.7664079
 207000      .207  -56739.066 -249850.26 899.729621 -250749.99 193111.193  57638.796 29.9909874
 207500     .2075    -15061.2 -289240.48 865.809013 -290106.29  274179.28 15927.0088 28.8603004
 208000      .208  26970.3594 -323806.64 823.427171 -324630.07 350777.002 -26146.932 27.4475724
 208500     .2085   68690.235 -353036.79 776.810504  -353813.6 421727.028 -67913.425 25.8936835
 209000      .209  109246.036 -376360.81 728.756301 -377089.56 485606.844 -108517.28 24.2918767
 209500     .2095  147722.708 -393230.51 679.767833 -393910.28 540953.218 -147042.94 22.6589278
 210000       .21  183290.018 -403225.55 628.500464 -403854.05 586515.567 -182661.52 20.9500155
 210500     .2105  215352.995 -406175.38 572.483041 -406747.86 621528.371 -214780.51  19.082768
 211000      .211  243595.916   -402206. 511.309308 -402717.31 645801.918 -243084.61 17.0436436
 211500     .2115  267775.572 -391592.54 448.259888  -392040.8  659368.11 -267327.31 14.9419963
 212000      .212  287484.705 -374541.39 387.515065  -374928.9 662026.093 -287097.19 12.9171688
  % % % % % %   Suspended simulation;  plot data space exhausted;  SPY SPACE is required.   LIMBUF =  340000.
  % % % % % %   Suspended simulation;  plot data space exhausted;  SPY SPACE is required.   LIMBUF =  340000.
  +++  Time-sharing disabled.   Send  user-keyed interrupt to silence alarm.
   Current values.  INDBUF  INDBEG  LIMBUF  MFLUSH  NUMDCD  KCARD1  KCARD2
                    339994      50  340000    1004      46       1      50
Plot timespan now in memory (in sec) = 1.69967994E-01   2.12461000E-01
   ++++  Begin plot-data copy from memory to disk.   MFLUSH, INDBUF, N4, Tbeg,  Tend = 1005  339994       1  -1.00000E+00
1.00000E+19
 212500     .2125  302241.789 -351249.25 331.368688 -351580.62 653491.036 -301910.42 11.0456229
 213000      .213  311600.283 -321961.71 279.908385 -322241.61 633561.989 -311320.38 9.33027951
 213500     .2135  315295.331 -287078.38 231.562346 -287309.94 602373.712 -315063.77 7.71874487
 214000      .214  313343.301 -247229.19 184.222339 -247413.42 560572.496 -313159.08 6.14074464
 214500     .2145   306036.08 -203279.73 138.282273 -203418.01 509315.808  -305897.8 4.60940908
 215000      .215  293686.577  -156130.9 97.1128754 -156228.02 449817.481 -293589.46 3.23709585
 215500     .2155  276472.701 -106563.31 64.0039874 -106627.31 383036.008  -276408.7 2.13346625
 216000      .216  254541.537 -55305.603 40.0990044 -55345.702  309847.14 -254501.44 1.33663348
 216500     .2165  228103.695 -3083.2648 24.5158849 -3107.7807  231186.96 -228079.18 .817196163
 217000      .217  197562.501 49284.9256 14.9613436 49269.9643 148277.575 -197547.54 .498711453
 217500     .2175  163566.704 100844.539 9.25309154 100835.286 62722.1655 -163557.45 .308436385
 218000      .218  126949.217 150539.827 7.92154097 150531.906  -23590.61  -126941.3 .264051366
 218500     .2185  88459.4044 197431.276 13.6960409  197417.58 -108971.87 -88445.708 .456534698
 219000      .219  48682.2443 240781.811 28.5062746 240753.305 -192099.57 -48653.738 .950209152
 219500     .2195  8143.08083 279984.102 52.1054572 279931.996 -271841.02 -8090.9754 1.73684857
 220000       .22  -32604.663 314505.317  82.519661 314422.797 -347109.98  32687.183 2.75065537
 220500     .2205  -72874.624  343799.54 116.736897 343682.803 -416674.16 72991.3605 3.89122991
 221000      .221  -111828.37 367282.224 152.530023 367129.694 -479110.59 111980.895 5.08433409
 221500     .2215  -148585.11 384395.568  190.42431 384205.144 -532980.68 148775.539 6.34747702
 222000      .222  -182464.55 394806.114 232.406925 394573.707 -577270.66 182696.953 7.74689749
 222500     .2225  -212999.21 398422.314 279.230865 398143.083 -611421.53 213278.444 9.30769548
 223000      .223  -239830.64 395315.771 329.646702 394986.125 -635146.41 240160.284 10.9882234
 223500     .2235  -262618.06 385648.903 381.060964 385267.842 -648266.96 262999.118 12.7020321
 224000      .224  -280956.04 369595.212 430.327077 369164.885 -650551.25 281386.363 14.3442359
 224500     .2245  -294375.29 347319.905 475.696716 346844.209  -641695.2  294850.99 15.8565572
 225000      .225  -302484.31 319067.054 518.048145 318549.005 -621551.37 303002.363 17.2682715
 225500     .2255  -305157.33 285312.321 559.057067 284753.264 -590469.65 305716.384 18.6352356
 226000      .226  -302488.54 246724.519 598.950243 246125.568 -549213.06 303087.492 19.9650081
 226500     .2265  -294686.57 204081.538 636.242107 203445.296  -498768.1 295322.807 21.2080702
 227000      .227  -281975.74 158183.484  668.49228 157514.992 -440159.22 282644.231  22.283076
 227500     .2275  -264532.45   109784.3 693.220142 109091.079 -374316.75 265225.671 23.1073381
 228000      .228  -242500.11 59580.6918 709.785174 58870.9066  -302080.8 243209.897 23.6595058
 228500     .2285  -216144.62 8315.76906 719.858572 7595.91049 -224460.39 216864.477 23.9952857
 229000      .229  -185974.68 -43119.524  725.30008 -43844.824 -142855.16  186699.98 24.1766693
 229500     .2295  -152654.63 -93757.928 726.425252 -94484.353   -58896.7 153381.053 24.2141751
 230000       .23   -116898.4 -142638.17  722.13726 -143360.31  25739.771 117620.539  24.071242
 230500     .2305  -79370.221 -188891.96 710.705099 -189602.67 109521.741 80080.9257   23.69017
 231000      .231  -40639.814  -231792.7 690.801234  -232483.5 191152.882 41330.6152 23.0267078
 231500     .2315  -1215.5919 -270746.61 663.131504 -271409.74 269531.013 1878.72335 22.1043835
 232000      .232  38299.3731 -305175.23 630.210059 -305805.44 343474.601 -37669.163  21.007002
 232500     .2325  77149.6897 -334457.32 594.174208 -335051.49  411607.01 -76555.516 19.8058069
 233000      .233  114534.094 -358008.17 555.571728 -358563.74 472542.261 -113978.52 18.5190576
 233500     .2335   149704.92  -375350.5 513.783291 -375864.28 525055.417 -149191.14 17.1261097
 234000      .234  182053.894 -386184.45 467.786417 -386652.23 568238.341 -181586.11 15.5928806
 234500     .2345  211133.424 -390409.04 417.285957 -390826.32  601542.46 -210716.14 13.9095319
 235000      .235  236596.719 -388082.49 363.965129 -388446.46 624679.213 -236232.75  12.132171
 235500     .2355  258049.821 -379296.21 310.686204  -379606.9 637346.035 -257739.14 10.3562068
 236000      .236  275040.957 -364148.05 259.442986 -364407.49 639189.008 -274781.51 8.64809954
 236500     .2365  287165.123 -342812.05 210.639641 -343022.69 629977.172 -286954.48 7.02132137
 237000      .237  294148.482  -315592.9 163.709451 -315756.61 609741.386 -293984.77 5.45698171
 237500     .2375  295907.572 -282969.57 117.866378 -283087.44 578877.141 -295789.71 3.92887927
 238000      .238  292542.931  -245589.1 73.2701129 -245662.37 538132.028 -292469.66  2.4423371
 238500     .2385  284248.726 -204195.64 31.8303117 -204227.47 488444.364  -284216.9 1.06101039
 239000      .239  271180.531 -159508.31 -4.0045849  -159504.3 430688.837 -271184.54 -.13348616
 239500     .2395  253475.706  -112218.8  -33.00819 -112185.79 365694.506 -253508.71  -1.100273
 240000       .24  231343.642 -63047.862 -55.457476 -62992.405 294391.504  -231399.1 -1.8485825
 240500     .2405  205131.064 -12786.712 -72.399937 -12714.312 217917.776 -205203.46 -2.4133312
 241000      .241  175350.639 37682.6041 -84.896885  37767.501 137668.035 -175435.54 -2.8298962
 241500     .2415  142648.485 87412.5072 -92.902401 87505.4096 55235.9782 -142741.39 -3.0967467
 242000      .242  107690.417 135480.235 -94.920753 135575.156 -27789.818 -107785.34 -3.1640251
 242500     .2425  71055.7509 181088.215 -89.454327 181177.669 -110032.46 -71145.205 -2.9818109
 243000      .243  33279.2196 223542.651 -76.389743 223619.041 -190263.43 -33355.609 -2.5463248
 243500     .2435  -5073.8599 262203.006 -56.910427 262259.916 -267276.87 5016.94945 -1.8970142
 244000      .244   -43358.33 296444.585 -32.719173 296477.304 -339802.91 43325.6106 -1.0906391
 244500     .2445  -80844.527 325650.063 -5.2666895  325655.33 -406494.59 80839.2605 -.17555632
 245000      .245  -116768.65 349241.605 25.2381283 349216.367 -466010.25 116793.885 .841270944
 245500     .2455  -150453.03 366772.438 59.7342509 366712.704 -517225.46  150512.76  1.9911417
 246000      .246  -181374.99 377989.847 98.7866763  377891.06 -559364.84 181473.775 3.29288921
 246500     .2465  -209106.52 382789.312  141.60368 382647.708 -591895.83 209248.123 4.72012265
 247000      .247  -233247.17 381160.715 186.405371  380974.31 -614407.89 233433.578 6.21351236
 247500     .2475  -253383.92 373147.983 231.190836 372916.792  -626531.9 253615.107  7.7063612
 248000      .248  -269098.61 358842.257 274.512245 358567.745 -627940.87 269373.124 9.15040818
 248500     .2485  -280025.71 338412.763 316.251828 338096.511 -618438.47  280341.96 10.5417276
 249000      .249  -285960.15 312185.336 357.146469 311828.189 -598145.48 286317.294 11.9048823
 249500     .2495   -286882.1 280662.999 397.326362 280265.673  -567545.1 287279.422 13.2442121
 250000       .25   -282880.5 244460.618 435.717797   244024.9 -527341.12 283316.218 14.5239266
 250500     .2505   -274087.5 204245.702 470.597498 203775.104  -478333.2 274558.098 15.6865833
 251000      .251  -260642.82 160696.407 500.312189 160196.094 -421339.23 261143.134  16.677073
 251500     .2515  -242704.87 114494.765  524.02246 113970.743 -357199.64 243228.897 17.4674153
 252000      .252  -220509.05 66357.2413 542.206858 65815.0344  -286866.3 221051.262 18.0735619
 252500     .2525  -194451.06 17096.0269 555.884812 16540.1421 -211547.08 195006.942 18.5294937
 253000      .253   -165070.5 -32394.465 565.316488 -32959.782 -132676.03 165635.816 18.8438829
 253500     .2535  -132965.19 -81209.876 569.745647 -81779.622 -51755.311 133534.933 18.9915216
 254000      .254  -98727.403 -128493.14 568.050626 -129061.19 29765.7355 99295.4536 18.9350209
 254500     .2545  -62914.793 -173468.75 559.398352 -174028.15 110553.959 63474.1912 18.6466117
  % % % % % %   Suspended simulation;  plot data space exhausted;  SPY SPACE is required.   LIMBUF =  340000.
  % % % % % %   Suspended simulation;  plot data space exhausted;  SPY SPACE is required.   LIMBUF =  340000.
  +++  Time-sharing disabled.   Send  user-keyed interrupt to silence alarm.
   Current values.  INDBUF  INDBEG  LIMBUF  MFLUSH  NUMDCD  KCARD1  KCARD2
                    339994      50  340000    1005      46       1      50
Plot timespan now in memory (in sec) = 2.12459996E-01   2.54953000E-01
   ++++  Begin plot-data copy from memory to disk.   MFLUSH, INDBUF, N4, Tbeg,  Tend = 1006  339994       1  -1.00000E+00
1.00000E+19
 255000      .255  -26064.857 -215442.39 543.915711 -215986.31 189377.536 26608.7727 18.1305237
 255500     .2555  11246.2617 -253763.08 522.893726 -254285.97 265009.342 -10723.368 17.4297909
 256000      .256  48346.7693  -287774.8 497.808874 -288272.61 336121.572  -47848.96 16.5936291
 256500     .2565  84513.8308 -316847.63 469.253474 -317316.89 401361.465 -84044.577 15.6417825
 257000      .257  119056.804 -340441.74 436.962367  -340878.7 459498.541 -118619.84 14.5654122
 257500     .2575  151371.587 -358151.25 400.490506 -358551.74 509522.837  -150971.1 13.3496835
 258000      .258  180956.196 -369720.17 359.800047 -370079.97 550676.366  -180596.4 11.9933349
 258500     .2585  207386.759 -375025.96  315.82052 -375341.78 582412.723 -207070.94 10.5273507
 259000      .259  230254.572 -374028.05 270.363027 -374298.41  604282.62 -229984.21 9.01210092
 259500     .2595  249129.858 -366726.96 225.051444 -366952.01 615856.819 -248904.81 7.50171478
 260000       .26  263617.805 -353198.24 180.525018 -353378.76 616816.043 -263437.28 6.01750061
 260500     .2605  273427.468 -333638.55 136.691168 -333775.24 607066.014 -273290.78 4.55637225
 261000      .261  278407.965 -308389.45 93.3841103 -308482.84 586797.417 -278314.58 3.11280368
 261500     .2615  278544.392 -277931.16  50.892156 -277982.05 556475.553  -278493.5  1.6964052
 262000      .262  273918.658 -242847.79 10.3786957 -242858.17 516766.447 -273908.28 .345956525
 262500     .2625   264641.17 -203764.24 -26.452499 -203737.79  468405.41 -264667.62 -.88174996
 263000      .263  250829.641 -161313.32 -58.407829 -161254.91 412142.963 -250888.05 -1.9469276
 263500     .2635   232663.91 -116166.72 -85.313603 -116081.41 348830.632 -232749.22 -2.8437868
 264000      .264  210435.002 -69064.269 -107.59481 -68956.674 279499.271  -210542.6 -3.5864938
 264500     .2645  184559.996 -20820.506 -125.66046 -20694.845 205380.502 -184685.66  -4.188682
 265000      .265  155558.833 27697.2464 -139.43131 27836.6777 127861.587 -155698.26 -4.6477104
 265500     .2655  124001.111   75614.73 -148.07523 75762.8052 48386.3809 -124149.19 -4.9358411
 266000      .266  90438.0319 122113.969 -150.53104   122264.5 -31675.937 -90588.563 -5.0177014
 266500     .2665  55395.5129 166451.191 -146.45169 166597.643 -111055.68 -55541.965 -4.8817232
 267000      .267  19423.9896 207925.097 -136.43735 208061.535 -188501.11 -19560.427 -4.5479118
 267500     .2675  -16869.103  245855.07 -121.50508 245976.575 -262724.17 16747.5977 -4.0501694
 268000      .268  -52820.716 279581.659  -102.5319 279684.191 -332402.38 52718.1843 -3.4177299
 268500     .2685  -87746.438 308491.702 -79.843211 308571.545 -396238.14 87666.5948 -2.6614404
 269000      .269  -120999.01 332062.926   -53.1137  332116.04 -453061.94 120945.899 -1.7704567
 269500     .2695  -152024.89 349912.583 -22.015032 349934.598 -501937.47 152002.871  -.7338344
 270000       .27  -180353.17 361792.636 13.0072308 361779.628  -542145.8 180366.175  .43357436
 270500     .2705  -205547.57 367550.939 50.7418016 367500.197 -573098.51 205598.315 1.69139339
 271000      .271  -227182.03  367107.18 89.7907327 367017.389 -594289.21 227271.817 2.99302442
 271500     .2715  -244848.68 360450.859 129.058169 360321.801 -605299.54 244977.739 4.30193895
 272000      .272   -258192.5 347659.712 168.084323 347491.628 -605852.22 258360.587 5.60281075
 272500     .2725   -266963.9 328933.867 206.977158  328726.89 -595897.77 267170.881 6.89923858
 273000      .273  -271053.15 304621.065 245.703105 304375.362 -575674.22 271298.855 8.19010349
 273500     .2735  -270458.71 275188.106 283.503806 274904.602 -545646.82 270742.216 9.45012685
 274000      .274  -265237.09 241173.964 319.092832 240854.871 -506411.05 265556.182 10.6364277
 274500     .2745  -255479.72 203161.092 351.227962 202809.864 -458640.82 255830.952 11.7075987
 275000      .275  -241320.39 161769.006 379.122233 161389.884  -403089.4 241699.513 12.6374078
 275500     .2755  -222963.57 117665.176  402.67897 117262.497 -340628.74 223366.245 13.4226323
 276000      .276  -200724.39 71588.3282 422.264782 71166.0634 -272312.72 201146.659 14.0754927
 276500     .2765   -175037.5  24352.295 437.995575 23914.2994 -199389.79 175475.494 14.5998525
 277000      .277  -146408.32 -23197.476 449.350116 -23646.826 -123210.84 146857.671 14.9783372
 277500     .2775  -115362.18 -70231.556 455.496807 -70687.053 -45130.626 115817.679 15.1832269
 278000      .278  -82422.536 -115963.12 455.816831 -116418.94 33540.5868 82878.3523 15.1938944
 278500     .2785  -48117.469 -159652.21 450.231516 -160102.44 111534.744 48567.7006 15.0077172
 279000      .279   -13003.08 -200594.72 439.322795 -201034.05 187591.644 13442.4025 14.6440932
 279500     .2795   22308.356 -238102.85 423.971483 -238526.82 260411.203 -21884.385 14.1323828
 280000       .28   57159.459 -271512.33 404.690494 -271917.02  328671.79 -56754.769 13.4896831
 280500     .2805  90902.9664 -300226.48 381.424732  -300607.9 391129.445 -90521.542 12.7141577
 281000      .281  122946.223 -323753.18 353.954707 -324107.13 446699.403 -122592.27 11.7984902
 281500     .2815  152765.331  -341719.1 322.347297 -342041.44 494484.427 -152442.98 10.7449099
 282000      .282  179893.911 -353862.69 287.200088 -354149.89 533756.603 -179606.71 9.57333625
 282500     .2825   203898.24 -360014.03 249.644765 -360263.67 563912.266 -203648.59 8.32149215
 283000      .283  224354.971 -360071.42 210.890568 -360282.31  584426.39 -224144.08  7.0296856
 283500     .2835  240871.459 -354009.37 171.650892 -354181.02 594880.826 -240699.81 5.72169639
 284000      .284  253135.145 -341911.57 132.112572 -342043.68 595046.712 -253003.03 4.40375241
 284500     .2845  260943.303 -323989.94 92.3745276 -324082.32 584933.247 -260850.93 3.07915092
 285000      .285  264202.797 -300580.94 52.8210227 -300633.76 564783.734 -264149.98 1.76070076
 285500     .2855  262908.465 -272123.72 14.2898653 -272138.01 535032.186 -262894.17 .476328844
 286000      .286  257111.429 -239128.25 -22.030055 -239106.22 496239.683 -257133.46 -.73433516
 286500     .2865  246898.074 -202147.42  -55.10009 -202092.32 449045.497 -246953.17 -1.8366697
 287000      .287  232411.096 -161782.32 -84.475813 -161697.85 394193.421 -232495.57 -2.8158604
 287500     .2875  213885.587 -118702.22 -110.19027 -118592.03 332587.804 -213995.78  -3.673009
 288000      .288  191660.832 -73647.463 -132.31143 -73515.152 265308.295 -191793.14 -4.4103811
 288500     .2885  166164.564  -27411.91 -150.64081 -27261.269 193576.474 -166315.21 -5.0213602
 289000      .289  137881.008 19188.1242 -164.61289  19352.737 118692.883 -138045.62 -5.4870964
 289500     .2895  107313.593 65350.7387 -173.48394 65524.2226 41962.8545 -107487.08 -5.7827979
 290000       .29  74966.4651 110313.256 -176.82837 110490.085 -35346.791 -75143.293 -5.8942791
 290500     .2905  41364.5584 153344.622 -174.83361 153519.456 -111980.06 -41539.392 -5.8277868
 291000      .291  7077.29063 193731.564 -168.06508 193899.629 -186654.27 -7245.3557 -5.6021693
 291500     .2915  -27283.094 230782.106  -157.0447  230939.15  -258065.2 27126.0496 -5.2348234
 292000      .292  -61086.459  263846.15 -142.01457 263988.165 -324932.61 60944.4444 -4.7338191
 292500     .2925   -93720.23 292344.526 -122.89914 292467.425 -386064.76 93597.3304 -4.0966381
 293000      .293  -124624.43 315799.114 -99.559394 315898.674 -440423.54 124524.871 -3.3186465
 293500     .2935  -153301.12 333844.086 -72.244901  333916.33 -487145.21 153228.877 -2.4081634
 294000      .294  -179291.25 346208.396 -41.739592 346250.135 -525499.65 179249.514 -1.3913197
 294500     .2945  -202156.52 352698.928 -9.0462365 352707.975 -554855.45 202147.472 -.30154122
 295000      .295  -221485.49 353200.379 24.9918841 353175.387 -574685.87 221510.483 .833062805
 295500     .2955  -236917.97 347688.725 59.8642282 347628.861 -584606.69 236977.832 1.99547427
 296000      .296  -248174.72 336249.388 95.3677405  336154.02  -584424.1 248270.083 3.17892468
 296500     .2965  -255081.04 319092.293 131.305987 318960.987 -574173.34 255212.349 4.37686624
 297000      .297  -257560.81 296544.137 167.106301 296377.031 -554104.95 257727.916 5.57021002
  % % % % % %   Suspended simulation;  plot data space exhausted;  SPY SPACE is required.   LIMBUF =  340000.
  % % % % % %   Suspended simulation;  plot data space exhausted;  SPY SPACE is required.   LIMBUF =  340000.
  +++  Time-sharing disabled.   Send  user-keyed interrupt to silence alarm.
   Current values.  INDBUF  INDBEG  LIMBUF  MFLUSH  NUMDCD  KCARD1  KCARD2
                    339994      50  340000    1006      46       1      50
Plot timespan now in memory (in sec) = 2.54952013E-01   2.97445000E-01
   ++++  Begin plot-data copy from memory to disk.   MFLUSH, INDBUF, N4, Tbeg,  Tend = 1007  339994       1  -1.00000E+00
1.00000E+19
 297500     .2975  -255606.03  269018.51 201.805315 268816.705 -524624.54 255807.834 6.72684385
 298000      .298  -249257.94 236992.626 234.402793 236758.223 -486250.56 249492.341 7.81342644
 298500     .2985  -238610.59 201000.445 264.177664 200736.267 -439611.04 238874.772 8.80592212
 299000      .299  -223828.01 161636.832  290.79616 161346.036 -385464.84 224118.804 9.69320533
 299500     .2995  -205162.97 119564.365 314.221503 119250.144 -324727.33 205477.187 10.4740501
 300000       0.3  -182964.99 75514.0596 334.384106 75179.6755 -258479.05 183299.371 11.1461369
 300500     .3005  -157658.48 30262.9347 350.880521 29912.0541 -187921.41 158009.357 11.6960174
 301000      .301  -129706.17 -15402.053 363.062641 -15765.115 -114304.12 130069.235  12.102088
 301500     .3015     -99589.  -60708.36 370.390721 -61078.751 -38880.639 99959.3905 12.3463574
 302000      .302  -67806.719 -104905.85 372.675359 -105278.53 37099.1312 68179.3939  12.422512
 302500     .3025  -34888.485 -147265.45 370.119464 -147635.57 112376.962 35258.6049 12.3373155
 303000      .303  -1402.7939 -187076.05 363.165675 -187439.21 185673.252 1765.95961 12.1055225
 303500     .3035  32046.6451 -223649.55 352.158188 -224001.71   255696.2 -31694.487 11.7386063
 304000      .304  64851.6272 -256346.73  337.12949 -256683.86 321198.356 -64514.498 11.2376497
 304500     .3045  96434.9341 -284607.99 317.964735 -284925.95  381042.92 -96116.969 10.5988245
 305000      .305  126266.024 -307968.95 294.725741 -308263.67 434234.971  -125971.3 9.82419137
 305500     .3055    153857.8  -326060.2 267.817916 -326328.01 479917.996 -153589.98 8.92726386
 306000      .306  178756.289 -338599.41 237.971125 -338837.38 517355.698 -178518.32 7.93237084
 306500     .3065  200532.674 -345382.73  206.03692 -345588.77 545915.409 -200326.64 6.86789735
 307000      .307  218791.336 -346286.29 172.666986 -346458.96 565077.629 -218618.67 5.75556621
 307500     .3075  233199.177 -341284.78 138.191096 -341422.97 574483.955 -233060.99 4.60636986
 308000      .308  243511.138 -330468.15 102.832968 -330570.98 573979.284  -243408.3 3.42776559
 308500     .3085  249574.524 -314041.78 66.9907962 -314108.78 563616.308 -249507.53 2.23302654
 309000      .309  251317.098 -292312.91 31.3383511 -292344.25 543630.011 -251285.76  1.0446117
 309500     .3095  248730.863 -265671.88 -3.2433642 -265668.64 514402.747 -248734.11 -.10811214
 310000       .31  241860.291 -234574.88 -35.898581 -234538.99 476435.175 -241896.19 -1.1966194
 310500     .3105  230807.871 -199538.98 -66.075351  -199472.9 430346.846 -230873.95 -2.2025117
 311000      .311  215754.997 -161150.62 -93.555806 -161057.06 376905.612 -215848.55 -3.1185269
 311500     .3115  196973.114 -120067.97 -118.20777 -119949.77 317041.089 -197091.32 -3.9402591
 312000      .312  174814.556 -77007.876 -139.75153 -76868.124 251822.432 -174954.31 -4.6583842
 312500     .3125  149691.035 -32722.553 -157.71042 -32564.843 182413.588 -149848.75 -5.2570139
 313000      .313  122051.039 12025.3324 -171.51378 12196.8462 110025.706 -122222.55 -5.7171259
 313500     .3135  92364.5796 56483.0583 -180.73597 56663.7943 35881.5213 -92545.316 -6.0245325
 314000      .314  61126.0425 99913.7057 -185.31095 100099.017 -38787.663 -61311.353 -6.1770316
 314500     .3145   28866.856 141591.957 -185.47665 141777.434  -112725.1 -29052.333 -6.1825549
 315000      .315  -3844.6904  180808.05 -181.51197 180989.562 -184652.74 3663.17846 -6.0503992
 315500     .3155   -36421.14 216884.477 -173.55064 217058.028 -253305.62 36247.5894 -5.7850213
 316000      .316  -68281.231 249198.683 -161.57143 249360.254 -317479.91 68119.6599 -5.3857144
 316500     .3165  -98872.885  277204.13  -145.5239 277349.654 -376077.01 98727.3609 -4.8507968
 317000      .317  -127685.66 300443.478 -125.55514 300569.034 -428129.14 127560.108 -4.1851713
 317500     .3175  -154245.29 318546.325  -102.1503 318648.475 -472791.61 154143.135   -3.40501
 318000      .318  -178103.29 331220.469 -76.006739 331296.476 -509323.76 178027.282  -2.533558
 318500     .3185  -198840.59 338252.198 -47.776027 338299.974 -537092.79 198792.812 -1.5925342
 319000      .319   -216084.9 339516.594 -17.925873  339534.52 -555601.49 216066.972  -.5975291
 319500     .3195  -229531.36 334990.366 13.2358502  334977.13 -564521.73 229544.596 .441195007
 320000       .32  -238957.87 324760.779 45.4189086 324715.361 -563718.65 239003.286 1.51396362
 320500     .3205  -244227.46 309024.646 78.1473704 308946.498  -553252.1 244305.606 2.60491235
 321000      .321  -245274.56 288073.082 110.690501 287962.391 -533347.65 245385.254 3.68968337
 321500     .3215  -242091.14 262274.079 142.235353 262131.844 -504365.22  242233.38 4.74117843
 322000      .322  -234726.88 232064.957 172.118932 231892.838 -466791.84 234899.003 5.73729774
 322500     .3225  -223299.84 197952.977 199.915457 197753.062 -421252.82 223499.759 6.66384858
 323000      .323  -208007.12 160516.609 225.379612 160291.229 -368523.73 208232.499 7.51265372
 323500     .3235  -189128.46 120402.159 248.290457 120153.869 -309530.62 189376.752 8.27634858
 324000      .324  -167016.24 78310.2274 268.276683 78041.9507 -245326.47 167284.517  8.9425561
 324500     .3245  -142072.95 34971.3185  284.80807 34686.5104 -177044.27 142357.757 9.49360234
 325000      .325  -114733.31 -8875.9958 297.388758 -9173.3845 -105857.31 115030.694 9.91295861
 325500     .3255  -85460.359 -52495.964  305.74667  -52801.71 -32964.395 85766.1053 10.1915557
 326000      .326  -54749.544 -95159.337 309.868997 -95469.206 40409.7926  55059.413 10.3289666
 326500     .3265   -23131.02 -136146.96 309.913872 -136456.88 113015.942 23440.9336 10.3304624
 327000      .327  8835.46353 -174757.66 306.044434 -175063.71 183593.128 -8529.4191 10.2014811
 327500     .3275  40578.3546 -210325.22  298.28636  -210623.5 250903.572 -40280.068 9.94287866
 328000      .328  71539.5324 -242241.63 286.567352 -242528.19 313781.158 -71252.965 9.55224506
 328500     .3285  101190.732 -269973.68 270.909691 -270244.59 371164.414 -100919.82 9.03032303
 329000      .329   129036.25 -293067.99 251.568797 -293319.56 422104.238 -128784.68 8.38562656
 329500     .3295   154609.63 -311149.66 229.021834 -311378.68 465759.288 -154380.61 7.63406113
 330000       .33  177472.812 -323921.22 203.853789 -324125.07 501394.032 -177268.96 6.79512629
[...]
Times of maxima :     .007613    .714069    .003359    .004735    .006648    .002896    .713626
             Random switching times for simulation number  296  :
                                   1  5.5801796E-02    2  5.4258744E-02    3  5.4176209E-02    4  1.0357663E-02    5  6.9853327E-01
                                   6  6.9869586E-01    7  6.9958808E-01

                   -667768.38 -710599.61 -728850.83 .1143887E7 -.110686E7  -.12125E7 2521.66748
Times of maxima :     .007613    .714042    .003359    .004735    .006648    .002896    .713797
             Random switching times for simulation number  297  :
                                   1  5.6055230E-02    2  5.4163897E-02    3  5.4929744E-02    4  9.5205641E-03    5  7.0046628E-01
                                   6  6.9931070E-01    7  6.9985771E-01

                   -667768.38 -667194.46 -728850.83 .1143887E7 -.110686E7  -.12125E7 2564.96414
Times of maxima :     .007613    .713802    .003359    .004735    .006648    .002896    .014569
             Random switching times for simulation number  298  :
                                   1  5.4402657E-02    2  5.4726493E-02    3  5.5809066E-02    4  1.1302849E-02    5  6.9999931E-01
                                   6  6.9999918E-01    7  7.0135056E-01

                   -667768.38 -680354.65 -728850.83 .1143887E7 -.110686E7  -.12125E7 2467.46443
Times of maxima :     .007613    .713936    .003359    .004735    .006648    .002896    .713915
             Random switching times for simulation number  299  :
                                   1  5.4359107E-02    2  5.5309833E-02    3  5.5354775E-02    4  9.7516764E-03    5  7.0067447E-01
                                   6  7.0174165E-01    7  7.0054964E-01

                   -667768.38 -675289.46 -728850.83 .1143887E7 -.110686E7  -.12125E7 2475.92919
Times of maxima :     .007613    .713836    .003359    .004735    .006648    .002896    .713663
             Random switching times for simulation number  300  :
                                   1  5.6212631E-02    2  5.5400460E-02    3  5.4330646E-02    4  9.8967378E-03    5  7.0009595E-01
                                   6  7.0031249E-01    7  6.9985806E-01

                   -667768.38 -678530.62 -728850.83 .1143887E7 -.110686E7  -.12125E7 2454.68232
Times of maxima :     .007613    .713984    .003359    .004735    .006648    .002896    .713642

 MAIN20 dumps OVER12 dice seed  SEEDSV =   3.0444871000000000E+09

Statistical output of  node  voltage   0.4287E+06 |              X0003AX0003BX0003C

1 ) -------------------------------------------------------------------------------------------------------------------------------
Statistical distribution of peak voltage at node  "X0003A".   The base voltage for per unit printout is  V-base = 4.28660705E+05
  Interval             voltage         voltage  in     Frequency    Cumulative               Per cent
    number         in per unit      physical units     (density)     frequency     .GE. current value
        31           1.5500000      6.64424093E+05             0             0          100.000000
        32           1.6000000      6.85857128E+05           268           268           10.666667
        33           1.6500000      7.07290163E+05             5           273            9.000000
        34           1.7000000      7.28723199E+05             5           278            7.333333
        35           1.7500000      7.50156234E+05             3           281            6.333333
        36           1.8000000      7.71589269E+05             9           290            3.333333
        37           1.8500000      7.93022304E+05             9           299             .333333
        38           1.9000000      8.14455340E+05             1           300             .000000
Summary of preceding table follows:       Grouped data     Ungrouped data
                                 Mean = 1.59350000E+00     1.57858910E+00
                             Variance = 3.47767559E-03     4.13460654E-03
                   Standard deviation = 5.89718203E-02     6.43009062E-02

2 ) -------------------------------------------------------------------------------------------------------------------------------
Statistical distribution of peak voltage at node  "X0003B".   The base voltage for per unit printout is  V-base = 4.28660705E+05
  Interval             voltage         voltage  in     Frequency    Cumulative               Per cent
    number         in per unit      physical units     (density)     frequency     .GE. current value
        30           1.5000000      6.42991058E+05             0             0          100.000000
        31           1.5500000      6.64424093E+05            53            53           82.333333
        32           1.6000000      6.85857128E+05           139           192           36.000000
        33           1.6500000      7.07290163E+05            77           269           10.333333
        34           1.7000000      7.28723199E+05            25           294            2.000000
        35           1.7500000      7.50156234E+05             1           295            1.666667
        36           1.8000000      7.71589269E+05             0           295            1.666667
        37           1.8500000      7.93022304E+05             0           295            1.666667
        38           1.9000000      8.14455340E+05             0           295            1.666667
        39           1.9500000      8.35888375E+05             0           295            1.666667
        40           2.0000000      8.57321410E+05             0           295            1.666667
        41           2.0500000      8.78754445E+05             0           295            1.666667
        42           2.1000000      9.00187481E+05             0           295            1.666667
        43           2.1500000      9.21620516E+05             3           298             .666667
        44           2.2000000      9.43053551E+05             2           300             .000000
Summary of preceding table follows:       Grouped data     Ungrouped data
                                 Mean = 1.59733333E+00     1.59694239E+00
                             Variance = 6.94102564E-03     6.65682439E-03
                   Standard deviation = 8.33128180E-02     8.15893645E-02

3 ) -------------------------------------------------------------------------------------------------------------------------------
  SUMMARY   SUMMARY   SUMMARY   SUMMARY   SUMMARY   SUMMARY   SUMMARY   SUMMARY   SUMMARY   SUMMARY   SUMMARY   SUMMARY   SUMMARY
3 ) -------------------------------------------------------------------------------------------------------------------------------
The following is a distribution of peak overvoltages among all output nodes of the last data card that have the same base voltage.
This distribution is for the maximum of the peaks at all output nodes with  V-base = 4.28660705E+05
  Interval             voltage         voltage  in     Frequency    Cumulative               Per cent
    number         in per unit      physical units     (density)     frequency     .GE. current value
        34           1.7000000      7.28723199E+05             0             0          100.000000
        35           1.7500000      7.50156234E+05           276           276            8.000000
        36           1.8000000      7.71589269E+05             9           285            5.000000
        37           1.8500000      7.93022304E+05             9           294            2.000000
        38           1.9000000      8.14455340E+05             1           295            1.666667
        39           1.9500000      8.35888375E+05             0           295            1.666667
        40           2.0000000      8.57321410E+05             0           295            1.666667
        41           2.0500000      8.78754445E+05             0           295            1.666667
        42           2.1000000      9.00187481E+05             0           295            1.666667
        43           2.1500000      9.21620516E+05             3           298             .666667
        44           2.2000000      9.43053551E+05             2           300             .000000
Summary of preceding table follows:       Grouped data     Ungrouped data
                                 Mean = 1.73700000E+00     1.71474746E+00
                             Variance = 3.26688963E-03     3.90982814E-03
                   Standard deviation = 5.71567112E-02     6.25286186E-02

Statistical output of branch voltage   0.4287E+06 |-1            X0003BX0003CX0003AX0003BX0003CX0003A

4 ) -------------------------------------------------------------------------------------------------------------------------------
Statistical distribution of peak voltage  for branch  "X0003A"  to  "X0003B".   Base voltage  for per unit output = 4.28660705E+05
  Interval             voltage         voltage  in     Frequency    Cumulative               Per cent
    number         in per unit      physical units     (density)     frequency     .GE. current value
        51           2.5500000      1.09308480E+06             0             0          100.000000
        52           2.6000000      1.11451783E+06           291           291            3.000000
        53           2.6500000      1.13595087E+06             3           294            2.000000
        54           2.7000000      1.15738390E+06             2           296            1.333333
        55           2.7500000      1.17881694E+06             3           299             .333333
        56           2.8000000      1.20024997E+06             1           300             .000000
Summary of preceding table follows:       Grouped data     Ungrouped data
                                 Mean = 2.57833333E+00     2.58512027E+00
                             Variance = 4.40356745E-04     3.55169056E-04
                   Standard deviation = 2.09846788E-02     1.88459294E-02

5 ) -------------------------------------------------------------------------------------------------------------------------------
  SUMMARY   SUMMARY   SUMMARY   SUMMARY   SUMMARY   SUMMARY   SUMMARY   SUMMARY   SUMMARY   SUMMARY   SUMMARY   SUMMARY   SUMMARY
5 ) -------------------------------------------------------------------------------------------------------------------------------
A distribution of peak values among all output branches of the last data card that have the same base value follows.  This
statistical distribution is for the maximum of the peaks at all of these output branches having base  voltage  = 4.28660705E+05
  Interval             voltage         voltage  in     Frequency    Cumulative               Per cent
    number         in per unit      physical units     (density)     frequency     .GE. current value
        56           2.8000000      1.20024997E+06             0             0          100.000000
        57           2.8500000      1.22168301E+06           300           300             .000000
Summary of preceding table follows:       Grouped data     Ungrouped data
                                 Mean = 2.82500000E+00     2.82857246E+00
                             Variance = 1.52089415E-15     7.78507693E-14
                   Standard deviation = 3.89986429E-08     2.79017507E-07

Blank card ends statistical tabulation requests.  |BLANK STATISTICS

                                      Sample curve symbols : "A", "B", and "C"
                                      Theoretical curve symbol : "*"
                                      Common curve symbol : "X"

        Switch  "X0001B"  to  "X0002B"            Switch  "X0001A"  to  "X0002A"            Switch  "X0001C"  to  "X0002C"
1.32420000E+00   switchings per column          1.32420000E+00   switchings per column     1.32420000E+00   switchings per column
              Columns                                     Columns                                     Columns
          5   10   15   20   25   30                5   10   15   20   25   30                5   10   15   20   25   30
     +----+----+----+----+----+----+           +----+----+----+----+----+----+           +----+----+----+----+----+----+
    X                                         X                                         X
    X                                         X                                         X
    X                                         X                                         X
    *A                                        X                                         X
    |*A                                       B*                                        |*C
    |A*                                       | X                                       | X
    |   X                                     | B *                                     |   *  C
    |       X                                 |       X                                 |     C *
    |      A    *                             |           *B                            |       C   *
    |                 * A                     |                 *    B                  |                 *  C
    |                       *     A           |                       X                 |                       *    C
    |                      A    *             |                           *   B         |                    C      *
    |  5.5000E-02                 *     A     |  5.5000E-02              B  *           |  5.5000E-02                 *     C
    |                           *      A      |                         B *             |                         C *
    |                  A    *                 |                       * B               |                       *     C
    |               A *                       |                B*                       |            C    *
    |         A *                             |          B*                             |        C  *
    |       * A                               |       X                                 |       *  C
    |  A*                                     |   X                                     | C *
    | *A                                      | X                                       | X
    |X                                        |X                                        |*C
    X                                         *B                                        X
    X                                         X                                         X
    X                                         X                                         *C
    X                                         X                                         X
   Time (scale = 3.33333333E-04  Sec/line)   Time (scale = 3.33333333E-04  Sec/line)   Time  (scale = 3.33333333E-04  Sec/line)

        Switch  "X0003C"  to  "XX0009"            Switch  "X0001B"  to  "X0002B"            Switch  "X0001A"  to  "X0002A"
1.32420000E+00   switchings per column          1.32420000E+00   switchings per column     1.32420000E+00   switchings per column
              Columns                                     Columns                                     Columns
          5   10   15   20   25   30                5   10   15   20   25   30                5   10   15   20   25   30
     +----+----+----+----+----+----+           +----+----+----+----+----+----+           +----+----+----+----+----+----+
    X                                         X                                         X
    X                                         X                                         X
    X                                         X                                         X
    *A                                        X                                         * C
    |X                                        |X                                        |*C
    | *A                                      | X                                       | X
    |  A*                                     |  B*                                     |   X
    |      A*                                 |    B  *                                 |     C *
    |         A *                             |           *  B                          |          C*
    |                 * A                     |                B*                       |                 X
    |                       *     A           |                       *    B            |                       X
    |                           *    A        |                           *B            |                           * C
    |  1.0000E-02                 *A          |  7.0000E-01                 *   B       |  7.0000E-01                C*
    |                           *   A         |                           *  B          |                           *  C
    |                A      *                 |                   B   *                 |                    C  *
    |                 * A                     |            B    *                       |                 X
    |           X                             |         B *                             |           * C
    |     A *                                 |     B *                                 |       X
    A   *                                     |   *  B                                  |   *C
    A *                                       | X                                       C *
    A*                                        |*B                                       |*C
    *A                                        *B                                        X
    X                                         X                                         X
    X                                         *B                                        X
    X                                         X                                         X
   Time (scale = 3.33333333E-04  Sec/line)   Time (scale = 3.33333333E-04  Sec/line)   Time  (scale = 3.33333333E-04  Sec/line)

   Switch  "X0001C"  to  "X0002C"
     1.32420000E+00   switchings per column
              Columns
          5   10   15   20   25   30
     +----+----+----+----+----+----+
    X
    X
    *A
    X
    |X
    |A*
    | A *
    |       X
    |           *    A
    |          A      *
    |                       *    A
    |                         A *
    |  7.0000E-01                A*
    |                          A*
    |                       X
    |                 *  A
    |           *       A
    |    A  *
    |   X
    A *
    A*
    *A
    X
    *A
    X
   Time (scale = 3.33333333E-04  Sec/line)
 .... Questionable Kolmogorov-Smirnov test result = 4.79983461E-01
 .... Questionable Kolmogorov-Smirnov test result = 8.61125218E-01
 .... Questionable Kolmogorov-Smirnov test result = 6.22920778E-01
 .... Questionable Kolmogorov-Smirnov test result = 8.70941508E-02
 .... Questionable Kolmogorov-Smirnov test result = 7.08509700E-01
 .... Questionable Kolmogorov-Smirnov test result = 9.61921384E-01
 .... Questionable Kolmogorov-Smirnov test result = 7.92096056E-01

Actual List Sizes for the preceding solution follow.       11-Nov-18  11.00.00
   Size  1-10:    27    26    38     3   138    13    42  5310     0     0
   Size 11-20:     0     7 -9999 -9999 -9999     0     0     0    23  2972
   Size 21-30:    36   180 14783     0 -9999     9 -9999 -9999 -9999     0
Seconds for overlays  1-5  :     0.000     0.000     0.000  -- (CP: Wait; Real)
Seconds for overlays  6-11 :     0.000     0.000     0.000
Seconds for overlays 12-15 :     0.000     0.000     0.000
Seconds for time-step loop :     0.000     0.000     0.000
Seconds after DELTAT-loop  :     0.000     0.000     0.000
                               ---------------------------
                   Totals  :     0.000     0.000     0.000

