   ---   55   cards of disk file read into card cache cells  1   onward.
 <===> Done with  "/"-card sorting by data class.    Remember that the source file appears different from interpreted input data.
Alternative Transients Program (ATP),  F77 GNU Linux or DOS.  All rights reserved by Can/Am user group of Portland, Oregon, USA.
 Date (dd-mth-yy) and time of day (hh.mm.ss) = 11-Nov-18  11.00.00    Name of disk plot file, if any, is
Consult the 860-page ATP Rule Book of the Can/Am EMTP User Group in Portland,  Oregon, USA.  Source code date is
Total size of LABCOM tables = 16446853 INTEGER words.  31 VARDIM  List Sizes follow:  6002  10K  192K  900  420K  1200  15K
  120K  2250  3800  720  2K  72800  510  800K  800  90  254  800K  100K  3K  15K  192K  120  45K  260K  600  210K  1100  19  200K
--------------------------------------------------+--------------------------------------------------------------------------------
Descriptive interpretation of input data cards.   |  Input data card images are shown below, all 80 columns, character by character
                                                  0         1         2         3         4         5         6         7         8
                                                  012345678901234567890123456789012345678901234567890123456789012345678901234567890
--------------------------------------------------+--------------------------------------------------------------------------------
Comment card.   KOMPAR > 0.                       |C data:Caso0_ReEnergizacao_OTIMIZADA_SemControle.atp
Marker card preceding new EMTP data case.         |BEGIN NEW DATA CASE
Comment card.   KOMPAR > 0.                       |C $DUMMY, XYZ000
Misc. data.     1.000E-06   1.000E+00   0.000E+00 |   1.E-6      1.
Misc. data.  500  1  0  0  1  0  0  1  300  0     |     500       1       0       0       1       0       0       1     300
Statistics data.      1    1    0    0    1    0  |       1       1       0       0       1      -1                               0
Series R-L-C.   5.000E+00  7.500E-02  0.000E+00   |  X0001AX0007A                5.   75.                                         0
Series R-L-C.   5.000E+00  7.500E-02  0.000E+00   |  X0001BX0007B                5.   75.                                         0
Series R-L-C.   5.000E+00  7.500E-02  0.000E+00   |  X0001CX0007C                5.   75.                                         0
Series R-L-C.   2.000E+02  0.000E+00  0.000E+00   |  X0007AX0001A              200.                                               0
Series R-L-C.   2.000E+02  0.000E+00  0.000E+00   |  X0007BX0001B              200.                                               0
Series R-L-C.   2.000E+02  0.000E+00  0.000E+00   |  X0007CX0001C              200.                                               0
Series R-L-C.   1.321E+00  1.401E+00  0.000E+00   |  X0003BXX0008            1.32071401.3                                         0
Series R-L-C.   1.321E+00  1.401E+00  0.000E+00   |  X0003AXX0008            1.32071401.3                                         0
Series R-L-C.   1.321E+00  1.401E+00  0.000E+00   |  X0003CXX0008            1.32071401.3                                         0
Series R-L-C.   3.900E-01  4.138E-01  0.000E+00   |  XX0008                     .39 413.8                                         0
Series R-L-C.   3.000E+01  0.000E+00  0.000E+00   |  XX0009                     30.                                               0
Series R-L-C.   3.000E+02  0.000E+00  0.000E+00   |  X0002AX0010A              300.                                               0
Series R-L-C.   3.000E+02  0.000E+00  0.000E+00   |  X0002BX0010B              300.                                               0
Series R-L-C.   3.000E+02  0.000E+00  0.000E+00   |  X0002CX0010C              300.                                               0
Dynamic $INCLUDE uses fixed RAM cache to delay.   |$INSERT, C:\SimulacaoATP\2\EXT1.pch
J. Marti line, mode  1   parameters begin.        |-1X0010AX0005C                2.  0.00              -2 3
J. Marti line, mode  2   parameters begin.        |-2X0010BX0005A                2.  0.00              -2 3
J. Marti line, mode  3   parameters begin.        |-3X0010CX0005B                2.  0.00              -2 3
TR(1,1 )...  0.671-0.707-0.324                    |  0.67102882 -0.70710678 -0.32400803
TI(1,1 )...  0.000 0.000 0.003                    |  0.00000000  0.00000000  0.00341127
TR(2,1 )...  0.315 0.000 0.889                    |  0.31480489  0.00000000  0.88876566
TI(2,1 )... -0.018 0.000 0.010                    | -0.01839933  0.00000000  0.01048452
TR(3,1 )...  0.671 0.707-0.324                    |  0.67102882  0.70710678 -0.32400803
TI(3,1 )...  0.000 0.000 0.003                    |  0.00000000  0.00000000  0.00341127
Dynamic $INCLUDE uses fixed RAM cache to delay.   |$INSERT, C:\SimulacaoATP\2\OTIM2.pch
J. Marti line, mode  1   parameters begin.        |-1X0004AX0006C                2.  0.00              -2 3
J. Marti line, mode  2   parameters begin.        |-2X0004BX0006A                2.  0.00              -2 3
J. Marti line, mode  3   parameters begin.        |-3X0004CX0006B                2.  0.00              -2 3
TR(1,1 )...  0.671-0.707-0.324                    |  0.67102882 -0.70710678 -0.32400803
TI(1,1 )...  0.000 0.000 0.003                    |  0.00000000  0.00000000  0.00341127
TR(2,1 )...  0.315 0.000 0.889                    |  0.31480489  0.00000000  0.88876566
TI(2,1 )... -0.018 0.000 0.010                    | -0.01839933  0.00000000  0.01048452
TR(3,1 )...  0.671 0.707-0.324                    |  0.67102882  0.70710678 -0.32400803
TI(3,1 )...  0.000 0.000 0.003                    |  0.00000000  0.00000000  0.00341127
Dynamic $INCLUDE uses fixed RAM cache to delay.   |$INSERT, C:\SimulacaoATP\2\OTIM3.pch
J. Marti line, mode  1   parameters begin.        |-1X0005AX0004C                2.  0.00              -2 3
J. Marti line, mode  2   parameters begin.        |-2X0005BX0004A                2.  0.00              -2 3
J. Marti line, mode  3   parameters begin.        |-3X0005CX0004B                2.  0.00              -2 3
TR(1,1 )...  0.671-0.707-0.324                    |  0.67102882 -0.70710678 -0.32400803
TI(1,1 )...  0.000 0.000 0.003                    |  0.00000000  0.00000000  0.00341127
TR(2,1 )...  0.315 0.000 0.889                    |  0.31480489  0.00000000  0.88876566
TI(2,1 )... -0.018 0.000 0.010                    | -0.01839933  0.00000000  0.01048452
TR(3,1 )...  0.671 0.707-0.324                    |  0.67102882  0.70710678 -0.32400803
TI(3,1 )...  0.000 0.000 0.003                    |  0.00000000  0.00000000  0.00341127
Dynamic $INCLUDE uses fixed RAM cache to delay.   |$INSERT, C:\SimulacaoATP\2\EXT4.pch
J. Marti line, mode  1   parameters begin.        |-1X0006AX0003A                2.  0.00              -2 3
J. Marti line, mode  2   parameters begin.        |-2X0006BX0003B                2.  0.00              -2 3
J. Marti line, mode  3   parameters begin.        |-3X0006CX0003C                2.  0.00              -2 3
TR(1,1 )...  0.671-0.707-0.324                    |  0.67102882 -0.70710678 -0.32400803
TI(1,1 )...  0.000 0.000 0.003                    |  0.00000000  0.00000000  0.00341127
TR(2,1 )...  0.315 0.000 0.889                    |  0.31480489  0.00000000  0.88876566
TI(2,1 )... -0.018 0.000 0.010                    | -0.01839933  0.00000000  0.01048452
TR(3,1 )...  0.671 0.707-0.324                    |  0.67102882  0.70710678 -0.32400803
TI(3,1 )...  0.000 0.000 0.003                    |  0.00000000  0.00000000  0.00341127
Blank card ending branches.  IBR, NTOT = 26  27   |BLANK BRANCH
Switch.   5.50E-02  1.00E-03  0.00E+00  3.33E+03  |  X0001BX0002B      .055      .001               3333.STATISTICS               0
Switch.   5.50E-02  1.00E-03  0.00E+00  3.33E+03  |  X0001AX0002A      .055      .001               3333.STATISTICS               0
Switch.   5.50E-02  1.00E-03  0.00E+00  3.33E+03  |  X0001CX0002C      .055      .001               3333.STATISTICS               0
Switch.   1.00E-02  1.00E-03  0.00E+00  0.00E+00  |  X0003CXX0009       .01      .001                    STATISTICS               1
Switch.   7.00E-01  1.00E-03  0.00E+00  0.00E+00  |  X0001BX0002B        .7      .001                    STATISTICS               0
Switch.   7.00E-01  1.00E-03  0.00E+00  0.00E+00  |  X0001AX0002A        .7      .001                    STATISTICS               0
Switch.   7.00E-01  1.00E-03  0.00E+00  0.00E+00  |  X0001CX0002C        .7      .001                    STATISTICS               0
Switch.   0.00E+00  6.98E-01  0.00E+00  0.00E+00  |  X0002AX0010A                .698                                             0
Switch.   0.00E+00  6.98E-01  0.00E+00  0.00E+00  |  X0002BX0010B                .698                                             0
Switch.   0.00E+00  6.98E-01  0.00E+00  0.00E+00  |  X0002CX0010C                .698                                             0
Switch.   7.10E-01  0.00E+00  0.00E+00  0.00E+00  |  X0002AX0010A       .71                                                       0
Switch.   7.10E-01  0.00E+00  0.00E+00  0.00E+00  |  X0002BX0010B       .71                                                       0
Switch.   7.10E-01  0.00E+00  0.00E+00  0.00E+00  |  X0002CX0010C       .71                                                       0
Blank card ending switches.   KSWTCH = 13.        |BLANK SWITCH
Source.   4.29E+05  6.00E+01  0.00E+00 -1.00E+00  |14X0007A  428660.705       60.                                     -1.      100.
Source.   4.29E+05  6.00E+01 -1.20E+02 -1.00E+00  |14X0007B  428660.705       60.     -120.                           -1.      100.
Source.   4.29E+05  6.00E+01 -2.40E+02 -1.00E+00  |14X0007C  428660.705       60.     -240.                           -1.      100.
Blank card ends electric sources.  KCONST = 3     |BLANK SOURCE

     Total network loss  P-loss  by summing injections =   2.432568960122E+08

Card of names for time-step loop output.          |  X0003AX0003BX0003C
Output voltage differences for pairs of A6 names  |-5X0003BX0003CX0003AX0003BX0003CX0003A
Blank card ending requests for output variables.  |BLANK OUTPUT

Column headings for the  7   EMTP output variables follow.  These are divided among the 5 possible classes as follows ....
  First  6     output variables are electric-network voltage differences (upper voltage minus lower voltage);
  Next   1     output variables are branch currents (flowing from the upper node to the lower node);
   Step      Time      X0003A     X0003B     X0003C     X0003B     X0003A     X0003C     X0003C
                                                        X0003C     X0003B     X0003A     XX0009
 ***      Phasor I(0) =  3.5223111E+02                     Switch  "X0001B"  to  "X0002B"  closed in the steady-state.
 ***      Phasor I(0) =  3.8040819E+02                     Switch  "X0001A"  to  "X0002A"  closed in the steady-state.
 ***      Phasor I(0) = -7.3131165E+02                     Switch  "X0001C"  to  "X0002C"  closed in the steady-state.
 ***                    Switch  "X0002A"  to  "X0010A"  closed  after  0.00000000E+00  sec.
 ***                    Switch  "X0002B"  to  "X0010B"  closed  after  0.00000000E+00  sec.
 ***                    Switch  "X0002C"  to  "X0010C"  closed  after  0.00000000E+00  sec.
      0       0.0  330243.312 -339763.29 12233.3168  -351996.6   670006.6   -318010.        0.0
    500     .5E-3   361055.31 -298255.05   -59556.9 -238698.15 659310.365 -420612.21        0.0
   1000     .1E-2  380821.391 -246804.68 -129477.78  -117326.9 627626.074 -510299.17        0.0
   1500     .0015   386278.05 -186552.92 -194769.56 8216.64713 572830.967 -581047.61        0.0
   2000      .002  474410.539 3943.92712 -531257.29 535201.219 470466.612 -.100567E7        0.0
   2500     .0025   436748.79 166547.401 -609319.32 775866.721 270201.389 -.104607E7        0.0
   3000      .003  357561.627 288476.997   -650870. 939347.001 69084.6294 -.100843E7        0.0
   3500     .0035  253170.295 381742.838 -643411.24 .1025154E7 -128572.54 -896581.54        0.0
   4000      .004   141210.92 467953.025 -591166.35 .1059119E7 -326742.11 -732377.27        0.0
   4500     .0045  26885.9137 534833.194 -526227.97 .1061061E7 -507947.28 -553113.89        0.0
   5000      .005  -98587.892 574431.806 -445414.81 .1019847E7  -673019.7 -346826.92        0.0
   5500     .0055  -261282.43 556231.857 -277128.79  833360.65 -817514.28 -15846.365        0.0
   6000      .006  -385871.65 494319.607 -92306.403 586626.009 -880191.26 293565.252        0.0
   6500     .0065   -463142.1 423356.985 61642.1216 361714.863 -886499.08  524784.22        0.0
   7000      .007  -508179.15 348743.585 179508.408 169235.177 -856922.73 687687.555        0.0
   7500     .0075  -525051.39 273401.282 258260.882 15140.3994 -798452.68 783312.276        0.0
   8000      .008   -519687.1 192284.065 314384.451 -122100.39 -711971.17 834071.552        0.0
   8500     .0085  -497120.79 106426.679 357270.751 -250844.07 -603547.47 854391.544        0.0
   9000      .009   -439760.4  27799.496 370384.692  -342585.2  -467559.9 810145.094        0.0
   9500     .0095  -362021.23 -29513.204 349980.738 -379493.94 -332508.02 712001.964        0.0
  10000       .01  -287997.94 -74727.551 323623.959 -398351.51 -213270.39 611621.904        0.0
 ***                                                             Close switch  "X0003C"  to  "XX0009"  after  1.00010000E-02  sec.
  10500     .0105  -311113.58 -207863.45 31270.2979 -239133.75 -103250.13 342383.876 1042.34326
  11000      .011  -248182.16 -256871.71 32068.1812  -288939.9 8689.55728 280250.339 1068.93937
  11500     .0115  -189976.46 -311830.27 34193.9694 -346024.24  121853.81 224170.433 1139.79898
  12000      .012  -138418.18   -372416. 38317.9374 -410733.94 233997.826 176736.115 1277.26458
  12500     .0125  -82984.565 -415560.22 41027.2313 -456587.45 332575.658 124011.796 1367.57438
  13000      .013  -21215.883 -456135.81  42632.112 -498767.93  434919.93 63847.9952  1421.0704
  13500     .0135  3927.04565 -499773.63 44152.4482 -543926.08 503700.677 40225.4026 1471.74827
  14000      .014  -1978.0809 -603023.52 54751.1817  -657774.7 601045.435 56729.2626 1825.03939
  14500     .0145  112818.056 -579595.22 63908.7133 -643503.94 692413.279 -48909.342 2130.29044
  15000      .015  229732.858 -519916.74 67161.5757 -587078.32 749649.598 -162571.28 2238.71919
  15500     .0155  325378.053 -450280.06 62645.2088 -512925.27 775658.116 -262732.84 2088.17363
  16000      .016  412779.871 -366738.37 54424.3254  -421162.7 779518.242 -358355.55 1814.14418
  16500     .0165  493563.028 -262271.61 44377.6774 -306649.29 755834.642 -449185.35 1479.25591
  17000      .017  564498.865 -137004.53  31979.384 -168983.91 701503.391 -532519.48 1065.97947
  17500     .0175  615416.499 1791.10974  17859.369 -16068.259  613625.39 -597557.13 595.312301
  18000      .018  628484.013 144388.975 7276.28134 137112.694 484095.038 -621207.73 242.542711
  18500     .0185  612023.248 280998.843 1645.66493 279353.178 331024.405 -610377.58 54.8554976
  19000      .019  564115.754 394925.581 -5087.8536 400013.435 169190.173 -569203.61 -169.59512
  19500     .0195  489555.747 486714.518 -13365.013 500079.531  2841.2285 -502920.76 -445.50045
  20000       .02   389590.29 553508.099 -22382.811  575890.91 -163917.81  -411973.1  -746.0937
  20500     .0205  271449.486 593778.137 -31295.857 625073.994 -322328.65 -302745.34 -1043.1952
  21000      .021  143309.111 607979.141 -39827.621 647806.762 -464670.03 -183136.73 -1327.5874
  21500     .0215  9383.99826 591861.809 -47661.851  639523.66 -582477.81  -57045.85 -1588.7284
  22000      .022  -126551.34 544408.139 -53110.582 597518.721 -670959.48   73440.76 -1770.3527
  22500     .0225  -248969.78 481610.186 -55357.532 536967.718 -730579.97 193612.252 -1845.2511
  23000      .023  -349054.81 414809.962 -54575.814 469385.776 -763864.77 294478.993 -1819.1938
  23500     .0235  -426839.72 344228.704 -51665.541 395894.245 -771068.42 375174.178 -1722.1847
  24000      .024  -483891.66 268668.032 -47177.093 315845.126 -752559.69 436714.569 -1572.5698
  24500     .0245  -520767.27 188961.789  -41296.64 230258.429 -709729.06 479470.633 -1376.5547
  25000      .025  -537423.21 107991.555 -34323.367 142314.922 -645414.77 503099.847 -1144.1122
  25500     .0255  -535970.02 27539.8206 -26629.347 54169.1681 -563509.84 509340.673 -887.64492
  26000      .026  -519742.65 -52829.862  -17968.48 -34861.382 -466912.79 501774.168 -598.94935
  26500     .0265  -490763.63  -133922.9 -7920.2567 -126002.65 -356840.73 482843.378 -264.00856
  27000      .027  -450742.67 -216119.57 3193.38895 -219312.96  -234623.1 453936.057 106.446298
  27500     .0275    -400449. -297533.86 14608.9895 -312142.85 -102915.14 415057.989 486.966317
  28000      .028  -340256.23  -374868.4 25611.5031 -400479.91 34612.1696 365867.738 853.716769
  28500     .0285   -270523.5 -444282.07 35658.8434 -479940.91 173758.566 306182.346 1188.62811
  29000      .029  -191456.73  -501851.2 44273.7736 -546124.97 310394.468 235730.507 1475.79245
  29500     .0295  -104354.01 -544352.96 51021.3221 -595374.28 439998.948 155375.334 1700.71074
  30000       .03  -11752.416 -569080.15 55709.3524  -624789.5 557327.732 67461.7681 1856.97841
  30500     .0305  84181.9835  -572703.6 58382.3062 -631085.91 656885.585 -25799.677 1946.07687
  31000      .031  181568.712 -552048.15 59162.9927 -611211.14 733616.863 -122405.72 1972.09976
  31500     .0315  277472.237  -505964.5 58121.9522 -564086.45 783436.732 -219350.28 1937.39841
  32000      .032  367663.934 -435981.18    55278.2 -491259.38 803645.111 -312385.73 1842.60667
  32500     .0325  447401.168 -345587.51 50676.9538 -396264.46 792988.677 -396724.21 1689.23179
  33000      .033  512351.511 -239296.75 44401.5025 -283698.25 751648.259 -467950.01 1480.05008
  33500     .0335  558910.481 -122381.12 36569.4078 -158950.53 681291.601 -522341.07 1218.98026
  34000      .034  584210.955 -817.85206  27412.572 -28230.424 585028.807 -556798.38 913.752401
  34500     .0345  586291.393 119105.871 17313.6635 101792.207 467185.523 -568977.73 577.122116
  35000      .035  564375.225 231383.362 6717.14427 224666.218 332991.863 -557658.08 223.904809
  35500     .0355  519149.077 330970.207 -3965.3037 334935.511  188178.87 -523114.38 -132.17679
  36000      .036  452754.931 414185.161 -14371.226 428556.387 38569.7704 -467126.16 -479.04088
  36500     .0365   368523.01 478720.917 -24166.585 502887.502 -110197.91 -392689.59 -805.55285
  37000      .037  270617.129 523479.958 -33045.118 556525.076 -252862.83 -303662.25 -1101.5039
  37500     .0375  163586.686 548294.472 -40744.602 589039.074 -384707.79 -204331.29 -1358.1534
  38000      .038  52020.6507 553677.168 -47039.288 600716.456 -501656.52 -99059.938 -1567.9763
  38500     .0385  -59556.458 540744.703  -51719.22 592463.924 -600301.16 7837.23792  -1723.974
  39000      .039  -166774.78 511135.885 -54589.348 565725.233 -677910.66  112185.43 -1819.6449
  39500     .0395  -265665.66 466739.285 -55495.079 522234.365 -732404.95 210170.584  -1849.836
  40000       .04   -352935.8 409374.385 -54354.097 463728.481 -762310.19 298581.704 -1811.8032
  40500     .0405  -426067.46 340668.162 -51173.366 391841.529 -766735.62 374894.091 -1705.7789
  41000      .041  -483225.73 262164.012  -46054.18 308218.192 -745389.75 437171.554 -1535.1393
  41500     .0415  -523142.33 175501.424 -39190.303 214691.727 -698643.76 483952.029 -1306.3434
  42000      .042  -545078.31 82541.9887  -30851.95 113393.939  -627620.3  514226.36 -1028.3983
  % % % % % %   Suspended simulation;  plot data space exhausted;  SPY SPACE is required.   LIMBUF =  340000.
  % % % % % %   Suspended simulation;  plot data space exhausted;  SPY SPACE is required.   LIMBUF =  340000.
  +++  Time-sharing disabled.   Send  user-keyed interrupt to silence alarm.
   Current values.  INDBUF  INDBEG  LIMBUF  MFLUSH  NUMDCD  KCARD1  KCARD2
                    339994      50  340000    1000      46       1      50
Plot timespan now in memory (in sec) = 0.00000000E+00   4.24930000E-02
   ++++  Begin plot-data copy from memory to disk.   MFLUSH, INDBUF, N4, Tbeg,  Tend = 1001  339994       1  -1.00000E+00
1.00000E+19
  42500     .0425   -548816.9 -14561.746 -21359.359 6797.61289 -534255.16 527457.546 -711.97864
  43000      .043  -534621.51 -113310.95 -11062.191 -102248.76 -421310.56 523559.324 -368.73971
  43500     .0435  -503154.91 -210802.21 -330.41962 -210471.79  -292352.7 502824.489 -11.013987
  44000      .044  -455412.72 -303716.81 10452.5392 -314169.35 -151695.91 465865.261 348.417972
  44500     .0445  -392714.99 -388420.07 20901.6724 -409321.75 -4294.9114 413616.658 696.722414
  45000      .045  -316743.71 -461177.97 30644.1175 -491822.09 144434.263 347387.827 1021.47058
  45500     .0455  -229593.99 -518454.59 39330.3774 -557784.97 288860.597 268924.368 1311.01258
  46000      .046  -133803.86 -557223.93 46645.3594 -603869.29  423420.07 180449.217 1554.84531
  46500     .0465  -32333.251 -575227.88 52322.4288 -627550.31 542894.625 84655.6797 1744.08096
  47000      .047  71508.6603 -571155.89 56158.2486 -627314.14 642664.552 -15350.412 1871.94162
  47500     .0475  174163.341 -544761.66 58023.1079 -602784.77 718925.004 -116140.23  1934.1036
  48000      .048  271936.174 -496922.96 57864.0318 -554786.99 768859.133 -214072.14 1928.80106
  48500     .0485  361135.015 -429619.62 55702.3504 -485321.97 790754.639 -305432.66 1856.74501
  49000      .049  438244.573 -345805.12 51628.2511 -397433.37 784049.693 -386616.32  1720.9417
  49500     .0495  500119.078 -249186.29 45793.6846 -294979.98  749305.37 -454325.39 1526.45615
  50000       .05  544160.613 -143958.34 38405.1087 -182363.45  688118.95  -505755.5 1280.17029
  50500     .0505  568461.478 -34538.962  29717.228 -64256.191 603000.441 -538744.25 990.574268
  51000      .051  571906.519 74676.3565 20027.0009 54649.3556 497230.162 -551879.52 667.566696
  51500     .0515  554237.922 179531.209  9666.1162 169865.093 374706.713 -544571.81 322.203873
  52000      .052   516079.22 276288.503  -1008.772 277297.275 239790.717 -517087.99 -33.625732
  52500     .0525  458910.653 361759.101 -11627.384 373386.485 97151.5521 -470538.04 -387.57947
  53000      .053  384993.309 433368.074 -21818.127 455186.202 -48374.765 -406811.44  -727.2709
  53500     .0535  297248.177 489161.964 -31221.335 520383.299 -191913.79 -328469.51 -1040.7112
  54000      .054  199102.932 527774.962 -39502.999 567277.961 -328672.03 -238605.93 -1316.7666
  54500     .0545  94322.6922 548378.498 -46367.736 594746.234 -454055.81 -140690.43 -1545.5912
  55000      .055  -13160.645 550634.255 -51569.756 602204.011  -563794.9 -38409.112 -1718.9919
  55500     .0555  -119411.35 534659.919 -54921.447 589581.366 -654071.27 64489.9009 -1830.7149
  56000      .056  -220640.14 501008.896 -56299.868 557308.764 -721649.04 164340.275 -1876.6623
 ***                                                             Open  switch  "X0001B"  to  "X0002B"  after  5.63730000E-02  sec.
  56500     .0565  -313336.91 450663.743 -55651.406 506315.149 -764000.66 257685.509 -1855.0469
  57000      .057  -394380.02 385043.006 -52994.442 438037.448 -779423.02 341385.577 -1766.4814
  57500     .0575  -461119.01 306016.451 -48419.701 354436.152 -767135.46 412699.311   -1613.99
  58000      .058  -511432.91 215916.237 -42087.955 258004.192 -727349.15 469344.959 -1402.9318
  58500     .0585  -554426.71 151112.874 -35679.786  186792.66 -705539.58 518746.919 -1189.3262
  59000      .059  -567405.62 99558.6049 -26793.192 126351.797 -666964.22 540612.428 -893.10639
 ***                                                             Open  switch  "X0001A"  to  "X0002A"  after  5.94900000E-02  sec.
  59500     .0595  -559966.63 44366.6518 -16752.827 61119.4783 -604333.28 543213.805 -558.42755
 ***                                                             Open  switch  "X0001C"  to  "X0002C"  after  5.99890000E-02  sec.
  60000       .06  -534806.89 -17224.046 -6130.3685 -11093.677 -517582.84  528676.52 -204.34562
  60500     .0605  -492363.35 -83890.904 4691.85295 -88582.757 -408472.44 497055.199 156.395098
  61000      .061  -432457.44 -153416.47 15385.6124 -168802.08 -279040.97 447843.055 512.853747
  61500     .0615   -382062.7 -218659.83 26675.1731 -245335.01 -163402.87 408737.876 889.172436
  62000      .062  -325240.54 -242727.32 32353.2346 -275080.55 -82513.223 357593.778 1078.44115
  62500     .0625  -265791.13 -270857.92 29052.5314 -299910.45 5066.79398 294843.658 968.417714
  63000      .063  -202421.45 -307759.61 23789.6497 -331549.26 105338.154 226211.103 792.988323
  63500     .0635   -127107.5 -344047.82 18021.6079 -362069.43 216940.326 145129.104 600.720262
  64000      .064  -39500.269 -376261.83 11254.8572 -387516.68 336761.556 50755.1266 375.161907
  64500     .0645    51490.33 -409136.92 3888.79501 -413025.72 460627.251 -47601.535   129.6265
  65000      .065  119816.514  -426668.4 -3256.6575 -423411.75 546484.918 -123073.17 -108.55525
  65500     .0655  170446.437 -429785.74 -10011.075 -419774.66 600232.176 -180457.51 -333.70248
  66000      .066  193271.381   -456636. -13275.975 -443360.02 649907.378 -206547.36 -442.53251
  66500     .0665  243756.577 -463122.25  -13084.51 -450037.74 706878.829 -256841.09 -436.15033
  67000      .067  303618.239 -458365.53 -11374.483 -446991.04 761983.765 -314992.72 -379.14942
  67500     .0675  363649.632 -449071.08 -8806.3583 -440264.73 812720.717 -372455.99 -293.54528
  68000      .068  416974.993 -438550.87 -4848.9459 -433701.92  855525.86 -421823.94 -161.63153
  68500     .0685  442683.252 -402342.86 113.443272  -402456.3 845026.109 -442569.81  3.7814424
  69000      .069  453465.769 -354316.34 5332.89797 -359649.24 807782.114 -448132.87 177.763266
  69500     .0695  466191.021 -304262.09 10201.1677 -314463.26 770453.116 -455989.85 340.038922
  70000       .07  488082.848 -248635.89 11660.1281 -260296.02 736718.742 -476422.72 388.670936
  70500     .0705  499614.013 -197859.74 11112.7436 -208972.48 697473.748 -488501.27 370.424785
  71000      .071  506623.039 -146551.65 10259.4895 -156811.14 653174.685 -496363.55 341.982982
  71500     .0715  507186.233  -90660.56 8996.44101 -99657.001 597846.792 -498189.79 299.881367
  72000      .072  478870.409 -15337.552 6674.79917 -22012.351 494207.961 -472195.61 222.493306
  72500     .0725  436620.481 59291.7311 3633.60877 55658.1223  377328.75 -432986.87 121.120292
  73000      .073  397697.371 125311.605 122.510511 125189.095 272385.766 -397574.86 4.08368369
  73500     .0735  347672.755 172797.869 -2648.7088 175446.577 174874.886 -350321.46 -88.290293
  74000      .074  297103.251 214621.509 -3994.4992 218616.008 82481.7416 -301097.75 -133.14997
  74500     .0745  250095.846 255914.693 -4377.7692 260292.463 -5818.8469 -254473.62 -145.92564
  75000      .075  195901.479 298532.242 -4187.1605 302719.402 -102630.76 -200088.64 -139.57202
  75500     .0755  119134.773 348183.396 -3394.0193 351577.415 -229048.62 -122528.79 -113.13398
  76000      .076  40813.3098 391557.924 -1923.8364 393481.761 -350744.61 -42737.146 -64.127879
  76500     .0765  -26901.627 421533.854 41.2082497 421492.645 -448435.48 26942.8353 1.37360832
  77000      .077  -90612.296 437551.878 2569.65013 434982.227 -528164.17 93181.9465 85.6550044
  77500     .0775  -143244.34 447520.649 4357.47388 443163.175 -590764.99 147601.812 145.249129
  78000      .078  -193563.45 446682.249 5168.04668 441514.203  -640245.7 198731.501 172.268223
  78500     .0785    -250390. 445720.461 5714.24827 440006.213 -696110.46 256104.247 190.474942
  79000      .079  -313320.15 449141.357 6012.10321 443129.254 -762461.51 319332.253  200.40344
  79500     .0795  -365208.85 444361.899 5607.34889  438754.55 -809570.75 370816.196  186.91163
  80000       .08  -402740.14 424026.058 4705.68114 419320.377  -826766.2 407445.818 156.856038
  80500     .0805  -429026.28 391690.696 3543.42818 388147.268 -820716.97 432569.707 118.114273
  81000      .081  -447565.88 347762.931 2219.54721 345543.384 -795328.81 449785.427 73.9849071
  81500     .0815   -461005.8 294088.426 1372.41844 292716.007 -755094.23  462378.22 45.7472814
  82000      .082  -477171.81 247476.364 886.287638 246590.076 -724648.17 478058.095 29.5429213
  82500     .0825  -489561.14 205543.029 386.900413 205156.129 -695104.17 489948.045 12.8966804
  83000      .083  -488361.14 155733.222  -29.28341 155762.506 -644094.37 488331.861 -.97611366
  83500     .0835  -472035.23 96507.5297 66.0305363 96441.4992 -568542.76 472101.262 2.20101788
  84000      .084   -443134.7 32771.1307 595.954878 32175.1759 -475905.83 443730.656 19.8651626
  84500     .0845  -406799.15 -34332.072  1501.3065 -35833.378 -372467.08 408300.459 50.0435501
  % % % % % %   Suspended simulation;  plot data space exhausted;  SPY SPACE is required.   LIMBUF =  340000.
  % % % % % %   Suspended simulation;  plot data space exhausted;  SPY SPACE is required.   LIMBUF =  340000.
  +++  Time-sharing disabled.   Send  user-keyed interrupt to silence alarm.
   Current values.  INDBUF  INDBEG  LIMBUF  MFLUSH  NUMDCD  KCARD1  KCARD2
                    339994      50  340000    1001      46       1      50
Plot timespan now in memory (in sec) = 4.24919985E-02   8.49850000E-02
   ++++  Begin plot-data copy from memory to disk.   MFLUSH, INDBUF, N4, Tbeg,  Tend = 1002  339994       1  -1.00000E+00
1.00000E+19
  85000      .085  -363288.16 -99710.892  2525.5897 -102236.48 -263577.27  365813.75 84.1863232
  85500     .0855  -326827.29 -152547.59 3164.17649 -155711.77 -174279.69 329991.464  105.47255
  86000      .086  -287846.48 -198793.34  3392.0936 -202185.43 -89053.139 291238.574 113.069787
  86500     .0865  -236611.01 -246512.35 3548.89455 -250061.24 9901.33778 240159.904 118.296485
  87000      .087  -173719.88  -293614.5 3633.53187 -297248.03 119894.621 177353.413 121.117729
  87500     .0875  -105014.24 -338255.26 3480.89287 -341736.16 233241.021 108495.135 116.029762
  88000      .088  -35242.271 -378915.94 3185.88523 -382101.83  343673.67 38428.1563 106.196174
  88500     .0885  31464.8152 -411904.91 2765.43448 -414670.35 443369.727 -28699.381 92.1811492
  89000      .089   83806.843 -429795.76 2271.08808 -432066.85 513602.606 -81535.755 75.7029358
  89500     .0895  134521.723  -439187.1 1693.38804 -440880.49 573708.822 -132828.33 56.4462681
  90000       .09  191736.378  -445669.8 1119.57054 -446789.37 637406.175 -190616.81 37.3190181
  90500     .0905  250954.933 -448130.62 633.436194 -448764.06 699085.557  -250321.5 21.1145398
  91000      .091  306902.463 -445484.56 362.678444 -445847.24 752387.025 -306539.78 12.0892815
  91500     .0915  357091.059 -435929.01 382.601108 -436311.61  793020.07 -356708.46 12.7533703
  92000      .092  394853.238 -415612.52 635.830246 -416248.35 810465.758 -394217.41 21.1943415
  92500     .0925  416667.436 -380746.55 928.811586 -381675.36 797413.986 -415738.62 30.9603862
  93000      .093  433575.627 -340346.04 1034.53981 -341380.58 773921.671 -432541.09 34.4846603
  93500     .0935  450767.025 -299539.74  1047.2546   -300587. 750306.768 -449719.77 34.9084866
  94000      .094  463997.899 -256742.69 1146.51689 -257889.21 720740.588 -462851.38 38.2172296
  94500     .0945   470812.66 -210061.87 1314.23085  -211376.1 680874.531 -469498.43 43.8076948
  95000      .095   469107.91 -159570.95 1473.19023 -161044.14 628678.858 -467634.72 49.1063409
  95500     .0955   451250.52 -101368.46 1568.95081 -102937.41 552618.979 -449681.57 52.2983605
  96000      .096  419835.334 -36294.284 1469.29435 -37763.578 456129.618 -418366.04 48.9764783
  96500     .0965  384530.342 25864.1304 1204.72848 24659.4019 358666.212 -383325.61 40.1576161
  97000      .097  349287.383 82375.4161 957.992897 81417.4232 266911.967 -348329.39 31.9330966
  97500     .0975  311302.527  135381.88 784.363765 134597.517 175920.646 -310518.16 26.1454588
  98000      .098  268759.829 186279.003 630.961142 185648.042 82480.8264 -268128.87 21.0320381
  98500     .0985  220006.397 234334.199 582.238995  233751.96 -14327.803 -219424.16 19.4079665
  99000      .099  159067.709 284489.173 633.187739 283855.985 -125421.46 -158434.52  21.106258
  99500     .0995  92470.6956 332831.352 659.173026 332172.179 -240360.66 -91811.523 21.9724342
 100000       0.1  29459.1779  371350.26 694.976664 370655.283 -341891.08 -28764.201 23.1658888
 100500     .1005  -28188.478  399289.28 793.396323 398495.884 -427477.76 28981.8739 26.4465441
 101000      .101  -83137.178 418863.617 926.142236 417937.475  -502000.8   84063.32 30.8714079
 101500     .1015  -136988.28 431651.983 1095.40574 430556.577 -568640.27  138083.69 36.5135245
 102000      .102  -190574.81 438807.578 1354.60051 437452.978 -629382.38 191929.407 45.1533503
 102500     .1025  -248121.01 445064.829 1582.18589 443482.643 -693185.84 249703.193 52.7395298
 103000      .103  -302114.08  444943.19 1662.42453 443280.765 -747057.27 303776.506 55.4141508
 103500     .1035  -344932.86 432746.154 1666.86016 431079.294 -777679.02 346599.721 55.5620054
 104000      .104  -377505.72 409507.185 1678.30206 407828.883  -787012.9 379184.021 55.9434019
 104500     .1045  -402536.84 378214.962 1700.79208  376514.17 -780751.81 404237.636 56.6930692
 105000      .105  -421571.45 341123.672 1741.43459 339382.237 -762695.12 423312.886 58.0478196
 105500     .1055  -436530.19 301128.167 1788.46018 299339.707 -737658.35 438318.647 59.6153395
 106000      .106  -450106.51 261522.616 1766.85326 259755.763 -711629.13 451873.365 58.8951086
 106500     .1065  -455017.91  217006.78 1667.04313 215339.737 -672024.69 456684.949 55.5681044
 107000      .107  -446180.71 164364.963 1585.27292  162779.69 -610545.67 447765.983 52.8424307
 107500     .1075  -426604.26 106094.618 1582.49745 104512.121 -532698.88 428186.761 52.7499149
 108000      .108  -399506.95 45655.3189 1620.26298 44035.0559 -445162.27 401127.211 54.0087662
 108500     .1085   -366966.1 -14789.545 1684.37502  -16473.92 -352176.55 368650.472  56.145834
 109000      .109  -332666.41 -71429.738 1748.95958 -73178.697 -261236.68 334415.374 58.2986526
 109500     .1095  -297085.42 -122638.05 1756.36323 -124394.42 -174447.36 298841.781 58.5454411
 110000       .11    -253797. -173255.13 1694.52542 -174949.65 -80541.876  255491.53 56.4841806
 110500     .1105  -200802.13 -224974.04 1632.61699 -226606.66 24171.9133 202434.747 54.4205664
 111000      .111  -142382.25 -274923.17 1608.64757 -276531.82 132540.921 143990.898 53.6215857
 111500     .1115  -82230.941 -320121.16 1589.29699 -321710.46 237890.222  83820.238 52.9765663
 112000      .112  -22571.044  -359025.7 1580.50509  -360606.2 336454.652  24151.549  52.683503
 112500     .1125  32236.3381 -387929.94  1549.0378 -389478.98 420166.282   -30687.3 51.6345933
 113000      .113  83885.9676 -407470.81 1427.02605 -408897.83 491356.775 -82458.942 47.5675349
 113500     .1135  137702.114 -422598.21  1235.2621 -423833.47 560300.324 -136466.85 41.1754034
 114000      .114  193527.074 -434182.43 1073.56223 -435255.99 627709.504 -192453.51 35.7854077
 114500     .1145  247131.567 -439775.75 975.683309 -440751.44 686907.319 -246155.88  32.522777
 115000      .115  295217.798 -437472.69 914.786034 -438387.48  732690.49 -294303.01 30.4928678
 115500     .1155  336010.691 -426576.08 888.353813 -427464.44 762586.773 -335122.34 29.6117938
 116000      .116  365978.815 -404620.18 845.980668 -405466.16 770598.991 -365132.83 28.1993556
 116500     .1165  388674.691 -374542.62  729.84886 -375272.47 763217.309 -387944.84 24.3282953
 117000      .117  408922.439 -341273.37 593.243002 -341866.61  750195.81  -408329.2 19.7747667
 117500     .1175  425761.865  -305142.4  516.65275 -305659.05 730904.262 -425245.21 17.2217583
 118000      .118  435824.019 -264516.65 495.755853 -265012.41  700340.67 -435328.26 16.5251951
 118500     .1185  436928.541 -218719.99 504.810003  -219224.8 655648.528 -436423.73 16.8270001
 119000      .119  427992.478 -167646.06 534.336671 -168180.39 595638.535 -427458.14 17.8112224
 119500     .1195     407515. -110379.28 533.121451  -110912.4 517894.279 -406981.88  17.770715
 120000       .12  380546.954 -51301.391 464.501846 -51765.892 431848.344 -380082.45 15.4833949
 120500     .1205  351575.657 5297.33603 388.192997 4909.14303 346278.321 -351187.46 12.9397666
 121000      .121  319410.098 59563.8956 361.001973 59202.8936 259846.203  -319049.1 12.0333991
 121500     .1215   281738.07 112675.503 374.071562 112301.431 169062.567   -281364. 12.4690521
 122000      .122  237747.122 164722.746 420.441582 164302.304 73024.3765 -237326.68 14.0147194
 122500     .1225  186876.846  215984.42 485.406982 215499.013 -29107.574 -186391.44 16.1802327
 123000      .123  129835.466  266245.39 517.133752 265728.256 -136409.92 -129318.33 17.2377917
 123500     .1235  72335.5405 310922.746 498.886213  310423.86 -238587.21 -71836.654 16.6295404
 124000      .124  17962.4755 347110.399 491.436173 346618.962 -329147.92 -17471.039 16.3812058
 124500     .1245  -34707.138 375818.863 536.711243 375282.151   -410526. 35243.8495 17.8903748
 125000      .125  -87267.948 398535.804 618.367458 397917.436 -485803.75 87886.3157 20.6122486
 125500     .1255  -139756.97 415561.291 726.237799 414835.053 -555318.26 140483.205 24.2079266
 126000      .126  -192786.34 427895.056 833.895166  427061.16 -620681.39 193620.231 27.7965055
 126500     .1265  -244252.53 434838.726 893.391918 433945.334 -679091.26 245145.923 29.7797306
 127000      .127   -288884.1 432641.224  909.35917 431731.865 -721525.33 289793.463 30.3119723
  % % % % % %   Suspended simulation;  plot data space exhausted;  SPY SPACE is required.   LIMBUF =  340000.
  % % % % % %   Suspended simulation;  plot data space exhausted;  SPY SPACE is required.   LIMBUF =  340000.
  +++  Time-sharing disabled.   Send  user-keyed interrupt to silence alarm.
   Current values.  INDBUF  INDBEG  LIMBUF  MFLUSH  NUMDCD  KCARD1  KCARD2
                    339994      50  340000    1002      46       1      50
Plot timespan now in memory (in sec) = 8.49839970E-02   1.27477000E-01
   ++++  Begin plot-data copy from memory to disk.   MFLUSH, INDBUF, N4, Tbeg,  Tend = 1003  339994       1  -1.00000E+00
1.00000E+19
 127500     .1275  -324755.66 420278.096 940.039164 419338.057 -745033.76 325695.703 31.3346388
 128000      .128  -353872.43 399847.452 1008.31301 398839.139 -753719.88 354880.741 33.6104335
 128500     .1285  -377857.73  373427.87 1089.90587 372337.964  -751285.6 378947.635 36.3301955
 129000      .129  -396924.81 341920.422 1176.56768 340743.855 -738845.24 398101.381 39.2189227
 129500     .1295  -412111.93  307064.09 1243.99598 305820.094 -719176.02  413355.93 41.4665327
 130000       .13  -420941.19 268033.828 1256.45199 266777.376 -688975.02 422197.643  41.881733
 130500     .1305  -419476.49 222276.716 1236.44241 221040.273  -641753.2 420712.929  41.214747
 131000      .131  -407844.15 170427.449 1236.58268 169190.867  -578271.6 409080.735 41.2194228
 131500     .1315  -388866.03 115311.515 1264.14909 114047.366 -504177.55  390130.18 42.1383031
 132000      .132  -364585.35 59242.9633  1297.0919 57945.8714 -423828.31 365882.441 43.2363966
 132500     .1325  -335882.05 3569.52993 1328.74488 2240.78505 -339451.58 337210.798 44.2914959
 133000      .133  -304074.86 -49881.992 1332.53944 -51214.532 -254192.87 305407.404 44.4179814
 133500     .1335  -266904.06 -102265.81   1283.049 -103548.86 -164638.25 268187.111    42.7683
 134000      .134  -222034.65 -155291.34 1214.84951 -156506.19 -66743.303 223249.497 40.4949838
 134500     .1345  -171285.23  -207485.2 1172.81722 -208658.02 36199.9702 172458.051 39.0939074
 135000      .135  -117972.84 -256093.12 1151.91273 -257245.03 138120.281 119124.749 38.3970908
 135500     .1355  -64262.314 -299297.36 1133.45518 -300430.82 235035.047  65395.769 37.7818394
 136000      .136  -11509.279 -335925.97 1107.18853 -337033.16 324416.691 12616.4673 36.9062843
 136500     .1365  39302.1789 -365009.29 1046.11161  -366055.4 404311.472 -38256.067 34.8703868
 137000      .137  90325.9063 -388446.77 940.879126 -389387.65 478772.673 -89385.027 31.3626375
 137500     .1375  142740.637 -407685.61 834.936534 -408520.54 550426.245  -141905.7 27.8312178
 138000      .138  193998.862 -421325.66 763.174368 -422088.84 615324.525 -193235.69 25.4391456
 138500     .1385   241049.57 -427435.87 712.188823 -428148.06 668485.441 -240337.38 23.7396274
 139000      .139   282303.13 -425279.71 667.361289 -425947.07 707582.837 -281635.77 22.2453763
 139500     .1395  316607.547 -414412.18 616.308552 -415028.49 731019.732 -315991.24 20.5436184
 140000       .14  344075.347  -395262.9 535.192744 -395798.09 739338.246 -343540.15 17.8397581
 140500     .1405  367209.176 -370576.58 428.451475 -371005.03 737785.755 -366780.72 14.2817158
 141000      .141   386715.48  -341833.5 339.875913 -342173.37 728548.978  -386375.6 11.3291971
 141500     .1415  400299.635 -308153.38 291.793558 -308445.18 708453.016 -400007.84 9.72645193
 142000      .142  405891.244 -268642.32 266.118158 -268908.44 674533.566 -405625.13 8.87060527
 142500     .1425   403000.94 -223611.42 250.463789 -223861.88 626612.361 -402750.48 8.34879296
 143000      .143  391301.434 -173367.65 229.755996  -173597.4 564669.079 -391071.68 7.65853321
 143500     .1435  372336.774 -119544.92 183.058324 -119727.98 491881.699 -372153.72 6.10194414
 144000      .144  349109.182 -65274.042 124.485875 -65398.528 414383.224  -348984.7 4.14952917
 144500     .1445  322224.915 -11816.087 94.4422031 -11910.529 334041.001 -322130.47 3.14807344
 145000      .145  290098.274 41422.7423 103.704778 41319.0375 248675.532 -289994.57 3.45682594
 145500     .1455   251818.11 94728.4936 132.510316 94595.9833 157089.616  -251685.6 4.41701052
 146000      .146  207893.709 147386.984 169.019882 147217.964 60506.7252 -207724.69 5.63399605
 146500     .1465  158896.691 198826.422 196.531318 198629.891 -39929.731 -158700.16 6.55104393
 147000      .147  107420.492 246982.667  199.41786  246783.25 -139562.18 -107221.07   6.647262
 147500     .1475  56532.0769 289191.668 199.416462 288992.251 -232659.59  -56332.66 6.64721542
 148000      .148  6567.09214 325001.243 230.841476 324770.401 -318434.15 -6336.2507 7.69471587
 148500     .1485  -43596.318 355311.724 293.395982 355018.328 -398908.04 43889.7137 9.77986605
 149000      .149  -94172.546  380491.46 367.400618 380124.059 -474664.01 94539.9471 12.2466873
 149500     .1495  -144334.37 400220.425 441.209543 399779.216  -544554.8  144775.58 14.7069848
 150000       .15  -193095.17 414250.516 497.917043 413752.599 -607345.68 193593.084 16.5972348
 150500     .1505    -237689. 420901.914 528.758728 420373.155 -658590.91 238217.759 17.6252909
 151000      .151  -275788.09 418689.604  559.64461 418129.959 -694477.69 276347.735 18.6548203
 151500     .1515  -307824.21 408359.801 616.627577 407743.174 -716184.01 308440.837 20.5542526
 152000      .152  -335058.51 391497.251 691.083678 390806.168 -726555.76 335749.592 23.0361226
 152500     .1525  -357720.26 368964.533 765.754359 368198.779 -726684.79 358486.013 25.5251453
 153000      .153  -375425.23 341216.581 829.747778 340386.833 -716641.81 376254.974 27.6582593
 153500     .1535  -387386.68 308515.991 867.633132 307648.358 -695902.67 388254.315 28.9211044
 154000      .154   -391486.5 269886.204 878.797308 269007.407  -661372.7 392365.297 29.2932436
 154500     .1545  -386759.46 225121.639  891.25041 224230.389  -611881.1 387650.712  29.708347
 155000      .155  -374706.78  175970.51 923.099454 175047.411 -550677.29 375629.882 30.7699818
 155500     .1555  -357096.75 124500.337  961.25051 123539.086 -481597.09 358058.005 32.0416837
 156000      .156  -334584.55 71892.4883 991.722516 70900.7657 -406477.04 335576.277 33.0574172
 156500     .1565  -307520.09 19077.4445 1004.70754  18072.737 -326597.53 308524.798 33.4902514
 157000      .157  -275551.52 -33555.147 988.105725 -34543.253 -241996.37 276539.623 32.9368575
 157500     .1575   -237475.1 -86583.879 949.565482 -87533.445 -150891.22 238424.667 31.6521827
 158000      .158  -193679.25 -139476.67 916.993508 -140393.67 -54202.572 194596.239 30.5664503
 158500     .1585  -146470.79 -190210.01 900.755403 -191110.76 43739.2189 147371.544 30.0251801
 159000      .159  -97909.386 -236918.48 885.881958 -237804.37 139009.098 98795.2677 29.5293986
 159500     .1595  -48905.567 -278707.72 861.406687 -279569.13 229802.153 49766.9733 28.7135562
 160000       .16  -168.46694 -314895.12 818.940597 -315714.06 314726.653 987.407533 27.2980199
 160500     .1605  48539.5643 -345619.69 750.944914 -346370.63 394159.252 -47788.619 25.0314971
 161000      .161  97864.1445 -371644.15 671.672351 -372315.82  469508.29 -97192.472 22.3890784
 161500     .1615  146691.468 -392461.63 606.605859 -393068.24 539153.097 -146084.86 20.2201953
 162000      .162  192650.124 -406566.64  558.95919  -407125.6 599216.766 -192091.16  18.631973
 162500     .1625  234048.094  -412969.9 513.832785 -413483.73  647017.99 -233534.26 17.1277595
 163000      .163  270289.158 -411594.19 462.645677 -412056.83 681883.346 -269826.51 15.4215226
 163500     .1635  301036.325 -402587.27 398.181336 -402985.45 703623.593 -300638.14 13.2727112
 164000      .164  326985.215 -387014.41 317.529427 -387331.94 713999.625 -326667.69 10.5843142
 164500     .1645  348813.974 -366141.64 238.920905 -366380.56 714955.611 -348575.05 7.96403017
 165000      .165  365474.976 -339910.17 183.327857  -340093.5 705385.143 -365291.65 6.11092857
 165500     .1655  375276.525 -307667.02 147.532943 -307814.55 682943.541 -375128.99 4.91776476
 166000      .166  377489.283 -269460.22 117.377187  -269577.6 646949.506 -377371.91 3.91257289
 166500     .1665  372300.032 -226040.88 85.4545081 -226126.33 598340.912 -372214.58  2.8484836
 167000      .167  360257.272  -178390.9 45.1402154 -178436.04 538648.168 -360212.13 1.50467385
 167500     .1675  342817.957 -128291.35 -2.3695163 -128288.98 471109.311 -342820.33 -.07898388
 168000      .168  320989.161 -77256.927 -37.597251  -77219.33 398246.088 -321026.76 -1.2532417
 168500     .1685  294197.104 -25490.377 -45.715508 -25444.662 319687.481 -294242.82 -1.5238503
 169000      .169  261683.827 27114.5209 -35.299725 27149.8207 234569.306 -261719.13 -1.1766575
 169500     .1695  223744.511 79939.9046 -19.530331 79959.4349 143804.606 -223764.04 -.65101104
  % % % % % %   Suspended simulation;  plot data space exhausted;  SPY SPACE is required.   LIMBUF =  340000.
  % % % % % %   Suspended simulation;  plot data space exhausted;  SPY SPACE is required.   LIMBUF =  340000.
  +++  Time-sharing disabled.   Send  user-keyed interrupt to silence alarm.
   Current values.  INDBUF  INDBEG  LIMBUF  MFLUSH  NUMDCD  KCARD1  KCARD2
                    339994      50  340000    1003      46       1      50
Plot timespan now in memory (in sec) = 1.27476007E-01   1.69969000E-01
   ++++  Begin plot-data copy from memory to disk.   MFLUSH, INDBUF, N4, Tbeg,  Tend = 1004  339994       1  -1.00000E+00
1.00000E+19
 170000       .17  181307.693 131950.784 -5.3182854 131956.102 49356.9091 -181313.01 -.17727618
 170500     .1705  135713.524 181894.314 1.37480028 181892.939  -46180.79 -135712.15 .045826676
 171000      .171  88905.5911 227984.625 5.27504476  227979.35 -139079.03 -88900.316 .175834825
 171500     .1715  41962.8342 269122.399 24.9460222 269097.453 -227159.56 -41937.888 .831534074
 172000      .172  -5412.9018 305422.567 68.5564228  305354.01 -310835.47 5481.45825 2.28521409
 172500     .1725  -53406.019 337095.039 124.008582  336971.03 -390501.06 53530.0272  4.1336194
 173000      .173  -101225.34 363693.572 179.501882  363514.07 -464918.91 101404.843 5.98339605
 173500     .1735  -147744.16 384600.019 228.613172 384371.406 -532344.17 147972.769 7.62043906
 174000      .174  -191448.84  398977.74 266.709799  398711.03 -590426.58 191715.553 8.89032664
 174500     .1745  -230611.59 405754.967 301.544946 405453.422 -636366.56 230913.137 10.0514982
 175000      .175  -264684.74 404815.452 349.552368   404465.9 -669500.19 265034.289 11.6517456
 175500     .1755  -294234.31 397043.504 412.964786 396630.539 -691277.81 294647.271 13.7654929
 176000      .176  -319510.08 383206.583 478.364059 382728.219 -702716.67 319988.449 15.9454686
 176500     .1765  -339950.49 363491.773 535.898911 362955.874 -703442.27 340486.393  17.863297
 177000      .177  -354865.18 338027.501 580.181578 337447.319 -692892.68 355445.362 19.3393859
 177500     .1775  -363234.13  306680.64 609.001096 306071.639 -669914.77 363843.131 20.3000365
 178000      .178  -364179.92 269320.344 632.794252  268687.55 -633500.26 364812.711 21.0931417
 178500     .1785    -358134. 226835.592 665.423409 226170.169 -584969.59  358799.42 22.1807803
 179000      .179  -346301.36 180791.005  704.64963 180086.356 -527092.37 347006.012  23.488321
 179500     .1795  -329389.65 132399.059 737.733486 131661.325 -461788.71 330127.386 24.5911162
 180000       .18  -307455.85   82335.82 757.329575 81578.4905 -389791.67 308213.178 25.2443192
 180500     .1805  -280485.12  31191.368 759.762608 30431.6054 -311676.49 281244.883 25.3254203
 181000      .181  -248175.85 -20774.316 746.072095 -21520.388 -227401.54 248921.924 24.8690698
 181500     .1815  -210617.51 -73143.868 728.730224 -73872.598 -137473.65 211346.244 24.2910075
 182000      .182  -169122.48 -124588.87  718.73686  -125307.6 -44533.613 169841.217 23.9578953
 182500     .1825  -125375.08 -173477.44 710.867607  -174188.3  48102.354 126085.949 23.6955869
 183000      .183  -80381.482 -218745.52 694.282521  -219439.8 138364.035 81075.7645 23.1427507
 183500     .1835  -34609.979 -259831.83 664.194728 -260496.03 225221.852 35274.1739 22.1398243
 184000      .184  11608.6161 -296356.04 618.859287  -296974.9 307964.661 -10989.757 20.6286429
 184500     .1845  58202.1702 -328299.37 562.553353 -328861.92 386501.539 -57639.617 18.7517784
 185000      .185  104570.728 -355371.66 508.601061 -355880.26 459942.384 -104062.13 16.9533687
 185500     .1855  149135.078 -376558.29 464.693425 -377022.98 525693.365 -148670.38 15.4897808
 186000      .186   190341.53 -390863.58 423.678676 -391287.26  581205.11 -189917.85 14.1226225
 186500     .1865  227450.327 -397978.11 376.846281 -398354.96 625428.441 -227073.48 12.5615427
 187000      .187  260176.844 -398021.64 321.373252 -398343.02 658198.487 -259855.47 10.7124417
 187500     .1875  288468.901 -391357.14 257.122716 -391614.27 679826.044 -288211.78 8.57075719
 188000      .188  312473.344 -378639.58 190.770029 -378830.35 691112.925 -312282.57 6.35900097
 188500     .1885  331733.655 -360127.64 134.921448 -360262.56 691861.293 -331598.73 4.49738159
 189000      .189  345106.101 -335524.66 93.4089597 -335618.07 680630.761 -345012.69 3.11363199
 189500     .1895  351779.224 -304752.94 57.7302846 -304810.67 656532.168 -351721.49 1.92434282
 190000       .19  351778.506 -268393.89 20.8436293 -268414.73 620172.397 -351757.66 .694787644
 190500     .1905  345485.073 -227318.97  -19.02446 -227299.94 572804.039  -345504.1 -.63414868
 191000      .191  333540.473 -182613.84 -60.978753 -182552.86 516154.316 -333601.45 -2.0326251
 191500     .1915  316646.805 -135474.09 -97.199262 -135376.89 452120.894   -316744. -3.2399754
 192000      .192  294836.864 -86554.758 -117.28705 -86437.471 381391.621 -294954.15 -3.9095685
 192500     .1925  267702.221  -36070.11 -121.50847 -35948.602 303772.332 -267823.73 -4.0502822
 193000      .193   235328.98 15473.3606 -119.25175 15592.6124  219855.62 -235448.23 -3.9750583
 193500     .1935  198522.718 67058.7364 -116.41788 67175.1542 131463.981 -198639.14  -3.880596
 194000      .194  158304.817 117552.469 -114.41014 117666.879 40752.3475 -158419.23 -3.8136713
 194500     .1945  115880.429 165709.753 -111.67419 165821.428 -49829.324  -115992.1 -3.7224731
 195000      .195  72300.6593 210411.487 -100.28518 210511.773 -138110.83 -72400.945 -3.3428393
 195500     .1955  27885.2075   251193.9 -72.890883 251266.791 -223308.69 -27958.098 -2.4296961
 196000      .196  -17315.429 287942.225 -33.374027   287975.6 -305257.65 17282.0548 -1.1124676
 196500     .1965  -62724.996 320242.797 8.70561579 320234.091 -382967.79 62733.7017 .290187193
 197000      .197  -107261.11 347355.992 48.4606149 347307.531  -454617.1 107309.572 1.61535383
 197500     .1975  -149778.62 368561.905 84.7859551 368477.119 -518340.53 149863.409  2.8261985
 198000      .198  -189091.35 383136.349 119.985359 383016.363  -572227.7 189211.332 3.99951196
 198500     .1985  -224393.62 390674.946 161.612258 390513.334 -615068.57 224555.232 5.38707526
 199000      .199  -255625.55 391444.895 213.974662 391230.921 -647070.45 255839.525 7.13248872
 199500     .1995  -282860.47 385934.229 270.769696  385663.46  -668794.7 283131.241 9.02565654
 200000       0.2  -305678.11  374316.81 323.260066  373993.55 -679994.92 306001.369 10.7753355
 200500     .2005  -323367.72 356570.209 367.888705  356202.32 -679937.93  323735.61 12.2629568
 201000      .201  -335263.33 332732.101 404.315239 332327.786 -667995.43 335667.643 13.4771746
 201500     .2015  -340788.75 302884.547  435.99009 302448.557  -643673.3 341224.745  14.533003
 202000      .202  -339900.05 267513.187 470.056136 267043.131 -607413.23 340370.102 15.6685379
 202500     .2025  -333212.98  227660.87 508.361298 227152.509 -560873.85 333721.343 16.9453766
 203000      .203  -321321.15 184400.179 543.674988 183856.504 -505721.33 321864.823 18.1224996
 203500     .2035   -304349.3 138432.881 569.032373 137863.848 -442782.18 304918.335 18.9677458
 204000      .204  -282268.13 90303.3161  582.60703  89720.709 -372571.45 282850.741 19.4202343
 204500     .2045  -255114.23 40561.1067 585.370789 39975.7359 -295675.34 255699.599 19.5123596
 205000      .205  -223076.82 -10214.889 582.175979 -10797.065 -212861.93 223658.991  19.405866
 205500     .2055  -186904.31 -61067.875 579.726806 -61647.602 -125836.44 187484.039 19.3242269
 206000      .206   -147808.5 -110691.42 578.064021 -111269.49 -37117.075 148386.562 19.2688007
 206500     .2065  -106787.29  -157966.7 570.218735 -158536.92 51179.4092 107357.508 19.0072912
 207000      .207  -64363.285 -202212.46 551.451577 -202763.92 137849.179 64914.7369 18.3817192
 207500     .2075  -20944.249 -242920.67 521.699084 -243442.37  221976.42 21465.9477 17.3899695
 208000      .208  23046.6598 -279664.17 483.384615 -280147.56 302710.834 -22563.275 16.1128205
 208500     .2085  67033.9765 -312012.97 442.488699 -312455.46 379046.946 -66591.488 14.7496233
 209000      .209  109961.272  -339231.1 404.903238 -339636.01 449192.377 -109556.37 13.4967746
 209500     .2095  150562.695 -360446.36 369.188495 -360815.55 511009.058 -150193.51 12.3062832
 210000       .21  187972.244 -375140.01 329.152312 -375469.16 563112.252 -187643.09 10.9717437
 210500     .2105   221803.83 -383242.55 282.041681 -383524.59 605046.378 -221521.79 9.40138935
 211000      .211  251794.608  -384855.8 229.061926 -385084.87 636650.412 -251565.55 7.63539752
 211500     .2115  277724.025 -380197.74 173.660262  -380371.4 657921.767 -277550.36 5.78867539
 212000      .212  299228.086 -369456.33  122.12291 -369578.45 668684.414 -299105.96 4.07076368
  % % % % % %   Suspended simulation;  plot data space exhausted;  SPY SPACE is required.   LIMBUF =  340000.
  % % % % % %   Suspended simulation;  plot data space exhausted;  SPY SPACE is required.   LIMBUF =  340000.
  +++  Time-sharing disabled.   Send  user-keyed interrupt to silence alarm.
   Current values.  INDBUF  INDBEG  LIMBUF  MFLUSH  NUMDCD  KCARD1  KCARD2
                    339994      50  340000    1004      46       1      50
Plot timespan now in memory (in sec) = 1.69967994E-01   2.12461000E-01
   ++++  Begin plot-data copy from memory to disk.   MFLUSH, INDBUF, N4, Tbeg,  Tend = 1005  339994       1  -1.00000E+00
1.00000E+19
 212500     .2125  315574.722  -352558.9 78.8228667 -352637.72 668133.617  -315495.9 2.62742889
 213000      .213  326047.311 -329435.62 40.8345936 -329476.45 655482.926 -326006.48 1.36115312
 213500     .2135  330439.478 -300422.93  2.6699637  -300425.6 630862.405 -330436.81  .08899879
 214000      .214  328973.149 -266221.19 -37.146612 -266184.04 595194.335  -329010.3 -1.2382204
 214500     .2145  321977.744 -227634.87 -76.916208 -227557.95 549612.615 -322054.66 -2.5638736
 215000      .215  309822.134 -185527.49 -112.90127 -185414.59 495349.629 -309935.04 -3.7633758
 215500     .2155  292694.655 -140630.96 -139.50709 -140491.45 433325.614 -292834.16 -4.6502364
 216000      .216  270496.094  -93408.06 -154.54439 -93253.516 363904.154 -270650.64 -5.1514797
 216500     .2165  243274.183 -44368.666  -162.4297 -44206.236 287642.848 -243436.61 -5.4143233
 217000      .217  211579.274 5630.23899 -168.17905 5798.41804 205949.035 -211747.45 -5.6059682
 217500     .2175   176259.15 55528.9151 -172.68026 55701.5954 120730.235 -176431.83 -5.7560086
 218000      .218  138192.943  104281.08 -174.33183 104455.412 33911.8635 -138367.28 -5.8110612
 218500     .2185  98215.6283 150902.285 -169.67739 151071.962 -52686.656 -98385.306 -5.6559131
 219000      .219  56892.3875 194671.884 -154.48313 194826.367  -137779.5 -57046.871 -5.1494376
 219500     .2195  14533.0051 235164.626 -128.92247 235293.549 -220631.62 -14661.928 -4.2974158
 220000       .22  -28369.367 271912.544 -98.542118 272011.086 -300281.91 28270.8247 -3.2847373
 220500     .2205  -70924.009  304207.71 -67.850249 304275.561 -375131.72 70856.1584  -2.261675
 221000      .221  -112118.12  331302.03 -37.406572 331339.436 -443420.15 112080.715 -1.2468857
 221500     .2215  -151018.78 352564.479 -5.7859557 352570.265 -503583.26 151012.992 -.19286519
 222000      .222  -186859.27 367535.262 30.0827733 367505.179 -554394.53 186889.353 1.00275911
 222500     .2225  -219234.16 376102.756 72.9988676 376029.757 -595336.92 219307.161 2.43329559
 223000      .223  -247970.11 378429.636 120.898804 378308.737 -626399.75 248091.013 4.02996012
 223500     .2235  -272714.56 374617.753 167.912738  374449.84 -647332.32 272882.477 5.59709127
 224000      .224   -292848.8 364604.412 210.447942 364393.964 -657453.21 293059.248  7.0149314
 224500     .2245  -307779.88 348374.928 248.488556  348126.44 -656154.81 308028.369 8.28295187
 225000      .225  -317078.38  326060.25 283.659447 325776.591 -643138.63  317362.04 9.45531489
 225500     .2255  -320569.29 297996.163 318.932072 297677.231 -618565.45  320888.22 10.6310691
 226000      .226  -318464.59 264848.774  356.05411  264492.72 -583313.36 318820.642 11.8684703
 226500     .2265  -311138.93 227452.658 391.952471 227060.705 -538591.59 311530.887 13.0650824
 227000      .227  -298769.04 186503.835 421.395626 186082.439 -485272.88 299190.438 14.0465209
 227500     .2275  -281352.31  142539.38  442.21359 142097.166 -423891.69 281794.528  14.740453
 228000      .228   -258974.8  96135.125  455.30333 95679.8217 -355109.92 259430.103 15.1767777
 228500     .2285  -231895.25 47958.2154 462.932009 47495.2834 -279853.47 232358.186  15.431067
 229000      .229   -200633.6 -1167.3334 468.267744 -1635.6011 -199466.26 201101.864 15.6089248
 229500     .2295  -166024.33 -50196.343 472.430012 -50668.773 -115827.98 166496.755 15.7476671
 230000       .23  -128929.91 -98080.238 472.144548 -98552.382 -30849.676 129402.059 15.7381516
 230500     .2305  -89951.837 -144019.74 463.477594 -144483.22 54067.9052  90415.315 15.4492531
 231000      .231  -49532.632 -187411.08 445.878366 -187856.96 137878.446 49978.5104 14.8626122
 231500     .2315  -8180.4051 -227673.79 421.257492 -228095.05 219493.389 8601.66263 14.0419164
 232000      .232  33481.3079 -264219.96 392.611288 -264612.57 297701.269 -33088.697 13.0870429
 232500     .2325  74630.9897 -296380.12 363.240422 -296743.36 371011.114 -74267.749 12.1080141
 233000      .233  114273.114  -323395.7 333.734673 -323729.43 437668.813 -113939.38 11.1244891
 233500     .2335  151546.211 -344655.39 300.983544 -344956.37 496201.598 -151245.23 10.0327848
 234000      .234  185921.738 -359872.02 262.424469 -360134.44 545793.755 -185659.31 8.74748231
 234500     .2345  217039.324  -368966.4  218.79883  -369185.2 586005.728 -216820.53 7.29329432
 235000      .235  244527.184 -371921.21 172.672596 -372093.88  616448.39 -244354.51 5.75575319
 235500     .2355  267964.704 -368750.76 127.363491 -368878.12 636715.463 -267837.34 4.24544969
 236000      .236  286807.934 -359421.12 85.8112102 -359506.93 646229.056 -286722.12 2.86037367
 236500     .2365  300476.121   -343889. 47.8083822 -343936.81  644365.12 -300428.31 1.59361274
 237000      .237  308642.562 -322325.98 10.3174957  -322336.3 630968.544 -308632.24 .343916524
 237500     .2375  311333.244 -295210.76 -28.271898 -295182.48 606543.999 -311361.52 -.94239659
 238000      .238   308721.37 -263170.02 -66.618034  -263103.4 571891.386 -308787.99 -2.2206011
 238500     .2385  300986.067 -226857.77 -102.13761 -226755.63 527843.833  -301088.2 -3.4045868
 239000      .239  288272.331 -186916.18 -131.85493 -186784.32  475188.51 -288404.19 -4.3951643
 239500     .2395  270630.406 -143901.04 -153.82769 -143747.21 414531.448 -270784.23 -5.1275898
 240000       .24  248146.692 -98359.131 -169.39935 -98189.732 346505.823 -248316.09  -5.646645
 240500     .2405  221190.389 -51022.995 -181.76162 -50841.234 272213.385 -221372.15 -6.0587207
 241000      .241  190416.444 -2826.2822  -192.0916 -2634.1906 193242.726 -190608.54 -6.4030533
 241500     .2415  156545.015 45271.3187 -199.08895 45470.4076 111273.697  -156744.1 -6.6362984
 242000      .242   120253.24 92376.3288 -200.66922  92576.998 27876.9109 -120453.91 -6.6889741
 242500     .2425  82129.9064 137705.806 -194.69252 137900.498 -55575.899 -82324.599 -6.4897506
 243000      .243  42640.3523 180638.776 -180.57177 180819.348 -137998.42 -42820.924 -6.0190591
 243500     .2435  2287.17005 220604.836  -160.8132 220765.649 -218317.67 -2447.9832 -5.3604398
 244000      .244  -38198.975 256923.744  -138.7467  257062.49 -295122.72 38060.2284   -4.62489
 244500     .2445  -77932.297 288846.891 -115.33829  288962.23 -366779.19 77816.9589 -3.8446098
 245000      .245  -116080.05 315720.268 -89.559282 315809.827 -431800.32 115990.495 -2.9853094
 245500     .2455  -151938.37 337044.098 -59.908525 337104.007 -488982.47 151878.462 -1.9969508
 246000      .246  -184974.45 352511.338 -25.117378 352536.456 -537485.79 184949.338 -.83724594
 246500     .2465  -214822.64 362020.034 14.2036782  362005.83 -576842.68 214836.845 .473455941
 247000      .247  -241104.49 365533.363 54.8351276 365478.528 -606637.85 241159.322 1.82783759
 247500     .2475  -263293.86  362953.51 93.7061613 362859.803 -626247.36 263387.562 3.12353871
 248000      .248  -280837.55  354197.35 130.249303   354067.1  -635034.9 280967.795 4.34164342
 248500     .2485  -293328.41 339327.656 165.449129 339162.207 -632656.06 293493.855 5.51497096
 249000      .249   -300548.4 318580.926   200.5547 318380.372 -619129.33 300748.954 6.68515668
 249500     .2495  -302495.91 292391.179 236.329831 292154.849 -594887.09 302732.238 7.87766102
 250000       .25  -299335.05 261357.883 271.518862 261086.364 -560692.93 299606.571 9.05062873
 250500     .2505  -291207.81 226089.572  302.92485 225786.647 -517297.38 291510.731  10.097495
 251000      .251  -278151.38 187114.358 328.309083 186786.049 -465265.74 278479.687 10.9436361
 251500     .2515  -260240.15 144973.631 347.868434 144625.763 -405213.79 260588.023 11.5956145
 252000      .252  -237712.84 100316.357  362.94061 99953.4168  -338029.2 238075.782 12.0980203
 252500     .2525  -210987.09 53904.4389 374.948107 53529.4908 -264891.53 211362.038 12.4982702
 253000      .253  -180664.98 6620.88999 384.576254 6236.31374 -187285.87 181049.558 12.8192085
 253500     .2535  -147439.91 -40598.302 390.491725 -40988.794 -106841.61 147830.406 13.0163908
 254000      .254  -111916.66 -86917.357 390.138316 -87307.496 -24999.298 112306.794 13.0046105
 254500     .2545  -74579.527 -131647.05 382.476212 -132029.53 57067.5231  74962.003 12.7492071
  % % % % % %   Suspended simulation;  plot data space exhausted;  SPY SPACE is required.   LIMBUF =  340000.
  % % % % % %   Suspended simulation;  plot data space exhausted;  SPY SPACE is required.   LIMBUF =  340000.
  +++  Time-sharing disabled.   Send  user-keyed interrupt to silence alarm.
   Current values.  INDBUF  INDBEG  LIMBUF  MFLUSH  NUMDCD  KCARD1  KCARD2
                    339994      50  340000    1005      46       1      50
Plot timespan now in memory (in sec) = 2.12459996E-01   2.54953000E-01
   ++++  Begin plot-data copy from memory to disk.   MFLUSH, INDBUF, N4, Tbeg,  Tend = 1006  339994       1  -1.00000E+00
1.00000E+19
 255000      .255  -35938.439  -174140.4   368.6346 -174509.03 138201.959 36307.0734   12.28782
 255500     .2555  3386.86549 -213727.57 350.480351 -214078.05 217114.436 -3036.3851 11.6826784
 256000      .256  42669.8501 -249718.09 329.754512 -250047.85 292387.941 -42340.096 10.9918171
 256500     .2565  81092.0931 -281402.68 307.194748 -281709.87 362494.771 -80784.898 10.2398249
 257000      .257  117863.034 -308140.33 281.623181 -308421.95  426003.36 -117581.41 9.38743937
 257500     .2575  152372.476 -329486.94 251.305171 -329738.25 481859.418 -152121.17 8.37683903
 258000      .258  184171.162  -345192.9 216.301992  -345409.2 529364.062 -183954.86 7.21006641
 258500     .2585   212828.56 -355091.33 178.424981 -355269.75 567919.887 -212650.13 5.94749937
 259000      .259  237879.194 -359050.03 139.830191 -359189.86 596929.227 -237739.36 4.66100637
 259500     .2595  258830.311 -356968.76 102.299474 -357071.06 615799.069 -258728.01 3.40998248
 260000       .26  275190.666 -348785.61 66.3607488 -348851.97 623976.271  -275124.3 2.21202496
 260500     .2605  286596.648 -334566.67  30.824882  -334597.5 621163.318 -286565.82 1.02749607
 261000      .261  292920.565 -314595.83  -5.483754 -314590.35 607516.396 -292926.05  -.1827918
 261500     .2615  294202.794 -289325.93 -41.900497 -289284.03 583528.727 -294244.69 -1.3966832
 262000      .262  290517.547 -259265.54 -76.493988 -259189.05 549783.089 -290594.04 -2.5497996
 262500     .2625  281937.073 -224940.41  -107.3343 -224833.07 506877.478 -282044.41   -3.57781
 263000      .263  268535.824 -186882.79 -133.10823 -186749.69 455418.617 -268668.93 -4.4369411
 263500     .2635  250428.037 -145643.22 -153.92666 -145489.29 396071.253 -250581.96 -5.1308886
 264000      .264   227884.43 -101874.34 -171.30794 -101703.03 329758.769 -228055.74 -5.7102647
 264500     .2645   201389.29 -56380.089 -186.27841 -56193.811  257769.38 -201575.57 -6.2092802
 265000      .265  171535.281 -10034.041 -198.12963 -9835.9111 181569.322 -171733.41 -6.6043209
 265500     .2655  138903.528 36323.8293 -205.33642 36529.1657 102579.699 -139108.86 -6.8445473
 266000      .266  104039.681 81915.2243 -206.62889 82121.8532 22124.4567 -104246.31 -6.8876298
 266500     .2665  67455.8915 126034.622 -201.53275 126236.155 -58578.731 -67657.424 -6.7177583
 267000      .267  29677.5568 168025.293 -191.02775 168216.321 -138347.74 -29868.585 -6.3675915
 267500     .2675  -8655.9483 207200.877 -177.07665 207377.954 -215856.83 8478.87166  -5.902555
 268000      .268  -46780.239 242828.248 -160.75025 242988.999 -289608.49 46619.4885 -5.3583416
 268500     .2685  -83929.182 274221.355 -141.56127 274362.916 -358150.54 83787.6211  -4.718709
 269000      .269  -119430.82 300820.942 -118.55867   300939.5 -420251.77 119312.265 -3.9519556
 269500     .2695  -152717.94 322206.509 -91.190955 322297.699 -474924.45  152626.75 -3.0396985
 270000       .27   -183319.5 338096.192 -59.788057  338155.98 -521415.69 183259.709 -1.9929352
 270500     .2705  -210800.59 348303.272 -26.008861 348329.281 -559103.86 210774.577 -.86696204
 271000      .271  -234677.04 352660.598 8.00645334 352652.591 -587337.64 234685.051 .266881778
 271500     .2715  -254437.53 351023.871 41.3201643 350982.551 -605461.41 254478.854 1.37733881
 272000      .272  -269663.54  343359.19  74.342302 343284.848 -613022.73 269737.883 2.47807673
 272500     .2725  -280092.69 329791.164 107.695349 329683.469 -609883.85 280200.384 3.58984497
 273000      .273  -285612.06 310595.817 141.539387 310454.277 -596207.88 285753.604 4.71797957
 273500     .2735  -286234.03 286182.299 175.143743 286007.155 -572416.33 286409.178 5.83812475
 274000      .274  -282020.95 257029.703 206.688476 256823.015 -539050.65 282227.635 6.88961585
 274500     .2745  -273013.81 223616.418 234.372855 223382.046 -496630.23 273248.182  7.8124285
 275000      .275  -259274.61 186437.243 257.782657  186179.46 -445711.86 259532.397 8.59275522
 275500     .2755  -240987.96  146075.76 277.604385 145798.155 -387063.72 241265.562 9.25347949
 276000      .276  -218490.16 103223.391 294.546063 102928.845 -321713.56 218784.711  9.8182021
 276500     .2765   -192245.7 58658.0024  308.81534  58349.187  -250903.7 192554.512 10.2938447
 277000      .277  -162805.12 13210.1556 319.752148 12890.4035 -176015.27 163124.868 10.6584049
 277500     .2775  -130719.95 -32310.123 325.891365 -32636.014 -98409.823 131045.836 10.8630455
 278000      .278   -96488.74  -77170.04 326.200211  -77496.24 -19318.701 96814.9403 10.8733404
 278500     .2785  -60612.672 -120682.49  321.05547 -121003.54  60069.815 60933.7274  10.701849
 279000      .279  -23674.462  -162147.1 311.637966 -162458.74 138472.641 23986.0995 10.3879322
 279500     .2795  13658.9353 -200848.61 298.972417 -201147.58 214507.543 -13359.963 9.96574725
 280000       .28  50669.9294  -236081.7  283.52397 -236365.22 286751.625 -50386.405   9.450799
 280500     .2805   86643.656 -267190.22 264.911676 -267455.13 353833.872 -86378.744  8.8303892
 281000      .281  120950.466 -293635.34 242.220913 -293877.56 414585.803 -120708.25 8.07403043
 281500     .2815  153074.781 -315026.91 215.243371 -315242.15 468101.688 -152859.54 7.17477904
 282000      .282  182547.505  -331074.2 185.044691 -331259.25 513621.708 -182362.46 6.16815636
 282500     .2825   208885.36 -341534.03 153.159797 -341687.19 550419.394  -208732.2 5.10532657
 283000      .283  231601.463 -346213.16 120.787832 -346333.95 577814.624 -231480.68 4.02626107
 283500     .2835  250238.949 -344986.81 88.4834277 -345075.29 595225.757 -250150.47 2.94944759
 284000      .284  264424.883 -337833.51 55.9788948 -337889.48 602258.388  -264368.9 1.86596316
 284500     .2845  273936.337 -324886.01 22.7143685 -324908.73 598822.349 -273913.62 .757145617
 285000      .285  278697.686 -306431.43 -11.025255 -306420.41 585129.119 -278708.71 -.36750852
 285500     .2855    278701.7 -282845.46 -43.924557 -282801.54 561547.164 -278745.62 -1.4641519
 286000      .286  273960.958 -254544.46 -74.525518 -254469.93 528505.415 -274035.48 -2.4841839
 286500     .2865  264520.553 -221985.15 -101.86269 -221883.29 486505.708 -264622.42  -3.395423
 287000      .287  250485.209 -185674.61 -125.68865 -185548.92 436159.815  -250610.9 -4.1896218
 287500     .2875   232065.94 -146197.89 -146.51619 -146051.38 378263.832 -232212.46  -4.883873
 288000      .288  209621.917 -104248.94 -164.92088 -104084.01 313870.853 -209786.84 -5.4973626
 288500     .2885  183627.078 -60603.823 -180.58598 -60423.237 244230.901 -183807.66 -6.0195328
 289000      .289  154585.452 -16047.895 -192.43794 -15855.457 170633.347 -154777.89 -6.4145978
 289500     .2895  122993.003 28664.1273 -199.52033 28863.6476 94328.8759 -123192.52 -6.6506778
 290000       .29   89349.094 72808.4455 -201.46235 73009.9078 16540.6485 -89550.556 -6.7154115
 290500     .2905  54178.1965 115684.305 -198.62486  115882.93 -61506.109 -54376.821 -6.6208287
 291000      .291  18068.6965 156588.368 -191.99169  156780.36 -138519.67 -18260.688  -6.399723
 291500     .2915  -18307.947 194797.951  -182.3712 194980.322  -213105.9 18125.5754   -6.07904
 292000      .292  -54251.398 229611.679 -169.67492 229781.354 -283863.08 54081.7229 -5.6558307
 292500     .2925  -89111.619  260415.17 -153.29762 260568.467 -349526.79  88958.321 -5.1099205
 293000      .293  -122312.57 286704.564 -132.90859 286837.472 -409017.14 122179.664 -4.4302862
 293500     .2935  -153337.83 308079.063 -108.77146 308187.835 -461416.89 153229.057 -3.6257153
 294000      .294   -181707.2 324225.249 -81.813274 324307.062 -505932.45 181625.384 -2.7271091
 294500     .2945  -206940.91 334886.366 -53.368414 334939.735 -541827.27  206887.54 -1.7789471
 295000      .295  -228555.36 339851.056 -24.355406 339875.412 -568406.42 228531.009 -.81184687
 295500     .2955  -246123.69 338994.458 5.18376923 338989.274 -585118.15 246128.872 .172792308
 296000      .296  -259337.17 332324.903 35.5380995 332289.365 -591662.07 259372.708 1.18460332
 296500     .2965   -268009.3 319985.891 66.6570441 319919.234 -587995.19 268075.958 2.22190147
 297000      .297  -272052.42 302235.698 97.9516781 302137.747 -574288.11 272150.368 3.26505594
  % % % % % %   Suspended simulation;  plot data space exhausted;  SPY SPACE is required.   LIMBUF =  340000.
  % % % % % %   Suspended simulation;  plot data space exhausted;  SPY SPACE is required.   LIMBUF =  340000.
  +++  Time-sharing disabled.   Send  user-keyed interrupt to silence alarm.
   Current values.  INDBUF  INDBEG  LIMBUF  MFLUSH  NUMDCD  KCARD1  KCARD2
                    339994      50  340000    1006      46       1      50
Plot timespan now in memory (in sec) = 2.54952013E-01   2.97445000E-01
   ++++  Begin plot-data copy from memory to disk.   MFLUSH, INDBUF, N4, Tbeg,  Tend = 1007  339994       1  -1.00000E+00
1.00000E+19
 297500     .2975  -271445.93 279418.819  128.29913 279290.519 -550864.75 271574.229 4.27663768
 298000      .298  -266199.24 251928.162 156.422856 251771.739  -518127.4  266355.66 5.21409521
 298500     .2985  -256355.02 220195.707 181.664593 220014.042 -476550.73 256536.684 6.05548644
 299000      .299  -242044.61 184727.357 204.181654 184523.175 -426771.97 242248.792 6.80605515
 299500     .2995  -223525.21 146128.088 224.309548 145903.778 -369653.29 223749.515 7.47698493
 300000       0.3  -201163.91 105085.572 242.025526 104843.546 -306249.49 201405.939 8.06751754
 300500     .3005  -175404.08 62339.6795 256.841384 62082.8381 -237743.76  175660.92 8.56137946
 301000      .301  -146724.75 18645.0785 267.877397 18377.2011 -165369.83 146992.624 8.92924656
 301500     .3015  -115603.92 -25267.274 274.330348 -25541.605 -90336.648 115878.252 9.14434494
 302000      .302  -82527.784 -68693.474  276.13014 -68969.604  -13834.31 82803.9144 9.20433801
 302500     .3025   -48037.22 -110925.89 273.895144 -111199.79  62888.675 48311.1149 9.12983814
 303000      .303  -12743.433  -151242.6 268.268741 -151510.87 138499.168 13011.7017 8.94229135
 303500     .3035  22700.9135 -188931.29 259.514993  -189190.8 211632.203 -22441.398 8.65049977
 304000      .304  57640.0592 -223320.42 247.480116  -223567.9 280960.479 -57392.579 8.24933719
 304500     .3045  91457.3538 -253814.88 231.733333 -254046.61 345272.229  -91225.62 7.72444443
 305000      .305  123603.921 -279924.01 212.081397  -280136.1 403527.936 -123391.84  7.0693799
 305500     .3055   153579.67 -301251.32 189.067139 -301440.39 454830.993  -153390.6 6.30223797
 306000      .306  180892.331 -317461.44 163.726081 -317625.16 498353.767 -180728.61 5.45753602
 306500     .3065  205054.266 -328273.65 136.953582  -328410.6 533327.913 -204917.31 4.56511941
 307000      .307  225613.117 -333481.76 109.224182 -333590.98 559094.872 -225503.89 3.64080608
 307500     .3075  242185.802 -332976.42 80.6089702 -333057.03 575162.221 -242105.19 2.68696567
 308000      .308   254492.46 -326769.43  50.982063 -326820.41 581261.891 -254441.48  1.6994021
 308500     .3085  262368.397 -315003.04 20.5420657 -315023.59 577371.441 -262347.85 .684735522
 309000      .309  265731.159 -297922.07 -9.8655905 -297912.21  563653.23 -265741.02 -.32885302
 309500     .3095  264540.716 -275835.75 -39.132691 -275796.62 540376.466 -264579.85  -1.304423
 310000       .31  258799.716 -249109.37 -66.445275 -249042.93 507909.088 -258866.16 -2.2148425
 310500     .3105  248577.437 -218174.89 -91.451569 -218083.44 466752.324 -248668.89 -3.0483856
 311000      .311  234033.363 -183541.99 -114.19304  -183427.8 417575.351 -234147.56 -3.8064345
 311500     .3115  215436.906 -145808.86 -134.83585 -145674.02 361245.761 -215571.74 -4.4945283
 312000      .312  193159.514 -105653.25 -153.17794 -105500.07 298812.759 -193312.69 -5.1059314
 312500     .3125  167629.092 -63791.775 -168.49999 -63623.275 231420.868 -167797.59 -5.6166662
 313000      .313  139291.567 -20941.263 -180.02785 -20761.235  160232.83  -139471.6 -6.0009283
 313500     .3135  108611.621 22189.2666 -187.38393 22376.6505 86422.3543   -108799. -6.2461311
 314000      .314  76088.8938 64893.2292 -190.65607 65083.8852 11195.6647  -76279.55 -6.3552025
 314500     .3145  42272.2698 106460.849 -190.27874 106651.128  -64188.58 -42462.549 -6.3426247
 315000      .315  7767.01491 146175.805 -186.71322 146362.519 -138408.79 -7953.7281  -6.223774
 315500     .3155  -26787.913 183333.624  -180.0149 183513.639 -210121.54 26607.8983 -6.0004968
 316000      .316   -60769.76 217283.634 -169.84091 217453.475 -278053.39  60599.919 -5.6613638
 316500     .3165  -93603.003 247458.266 -155.93541 247614.201 -341061.27 93447.0676 -5.1978471
 317000      .317  -124754.47 273373.153 -138.46337 273511.617 -398127.63 124616.011 -4.6154456
 317500     .3175  -153719.18 294618.225 -117.99838 294736.223 -448337.41 153601.183 -3.9332793
 318000      .318  -180008.55 310848.296 -95.358887 310943.655 -490856.85 179913.191 -3.1786296
 318500     .3185  -203148.74 321778.291 -71.257633 321849.549 -524927.03 203077.478 -2.3752544
 319000      .319  -222708.15 327200.517 -45.957251 327246.475 -549908.67 222662.193 -1.5319084
 319500     .3195  -238340.43 327016.448 -19.410587 327035.858 -565356.87 238321.015 -.64701956
 320000       .32   -249800.4 321248.618 8.27329513 321240.344 -571049.01  249808.67 .275776504
 320500     .3205  -256929.57 310027.268 36.6079347  309990.66 -566956.84 256966.182 1.22026449
 321000      .321  -259637.12 293571.887 64.8013691 293507.085 -553209.01 259701.926 2.16004564
 321500     .3215  -257884.08 272173.007 91.9547223 272081.052 -530057.08 257976.032 3.06515741
 322000      .322  -251680.63 246181.868  117.41526 246064.452  -497862.5 251798.049   3.913842
 322500     .3225  -241110.22 216021.503 141.010787 215880.492 -457131.72 241251.231 4.70035958
 323000      .323  -226358.04 182204.189 162.804699 182041.384 -408562.22  226520.84  5.4268233
 323500     .3235  -207708.91 145325.852 182.677299 145143.175 -353034.76 207891.585 6.08924329
 324000      .324  -185521.85 106041.272 200.201204 105841.071 -291563.12 185722.051 6.67337347
 324500     .3245  -160204.34 65038.0907 214.752014 64823.3387 -225242.43 160419.093 7.15840045
 325000      .325  -132191.72 23013.2092 225.728365 22787.4809 -155204.93 132417.452 7.52427882
 325500     .3255  -101942.91 -19339.122 232.877969    -19572. -82603.784 102175.784 7.76259898
 326000      .326  -69959.235 -61319.204 236.411306 -61555.616 -8640.0308 70195.6466 7.88037688
 326500     .3265  -36798.968 -102214.01 236.683983  -102450.7 65415.0427 37035.6525 7.88946611
 327000      .327  -3061.5921 -141311.97 233.842918 -141545.81 138250.375 3295.43505 7.79476393
 327500     .3275  30643.1019 -177930.06 227.779197 -178157.84 208573.159 -30415.323  7.5926399
 328000      .328  63722.3742 -211438.56 218.261782 -211656.82 275160.933 -63504.112 7.27539274
 328500     .3285  95620.0268 -241280.59 205.166568 -241485.76 336900.616  -95414.86  6.8388856
 329000      .329  125816.892 -266976.69 188.751659 -267165.44 392793.582 -125628.14 6.29172196
 329500     .3295  153812.728 -288112.08 169.654153 -288281.74 441924.809 -153643.07 5.65513844
 330000       .33  179119.128 -304329.49  148.53548 -304478.03  483448.62 -178970.59 4.95118265
[...]
                                   6  6.9869586E-01    7  6.9958808E-01

                   630078.129 -718578.51 -655398.94 .1062197E7 996502.633 -.104621E7 2329.93526
Times of maxima :     .017984    .713692    .003237    .004196    .715066    .002531    .713912
             Random switching times for simulation number  297  :
                                   1  5.6055230E-02    2  5.4163897E-02    3  5.4929744E-02    4  9.5205641E-03    5  7.0046628E-01
                                   6  6.9931070E-01    7  6.9985771E-01

                   626528.043 -662305.21 -655398.94 .1062197E7 -889352.21 -.104621E7 2538.70583
Times of maxima :     .017937    .713791    .003237    .004196     .00632    .002531    .014572
             Random switching times for simulation number  298  :
                                   1  5.4402657E-02    2  5.4726493E-02    3  5.5809066E-02    4  1.1302849E-02    5  6.9999931E-01
                                   6  6.9999918E-01    7  7.0135056E-01

                   614836.466 -674473.01 -655398.94 .1062197E7 -889352.21 -.104621E7 2392.91865
Times of maxima :     .018296    .713769    .003237    .004196     .00632    .002531    .713888
             Random switching times for simulation number  299  :
                                   1  5.4359107E-02    2  5.5309833E-02    3  5.5354775E-02    4  9.7516764E-03    5  7.0067447E-01
                                   6  7.0174165E-01    7  7.0054964E-01

                   627995.294 -666303.44 -655398.94 .1062197E7 -889352.21 -.104621E7  2399.7615
Times of maxima :     .017983    .713715    .003237    .004196     .00632    .002531    .014725
             Random switching times for simulation number  300  :
                                   1  5.6212631E-02    2  5.5400460E-02    3  5.4330646E-02    4  9.8967378E-03    5  7.0009595E-01
                                   6  7.0031249E-01    7  6.9985806E-01

                   628345.753 -670196.99 -655398.94 .1062197E7 -889352.21 -.104621E7 2383.10581
Times of maxima :        .018    .713799    .003237    .004196     .00632    .002531    .713914

 MAIN20 dumps OVER12 dice seed  SEEDSV =   3.0444871000000000E+09

Statistical output of  node  voltage   0.4287E+06 |              X0003AX0003BX0003C

1 ) -------------------------------------------------------------------------------------------------------------------------------
Statistical distribution of peak voltage at node  "X0003A".   The base voltage for per unit printout is  V-base = 4.28660705E+05
  Interval             voltage         voltage  in     Frequency    Cumulative               Per cent
    number         in per unit      physical units     (density)     frequency     .GE. current value
        27           1.3500000      5.78691952E+05             0             0          100.000000
        28           1.4000000      6.00124987E+05             1             1           99.666667
        29           1.4500000      6.21558022E+05            31            32           89.333333
        30           1.5000000      6.42991058E+05           260           292            2.666667
        31           1.5500000      6.64424093E+05             2           294            2.000000
        32           1.6000000      6.85857128E+05             2           296            1.333333
        33           1.6500000      7.07290163E+05             2           298             .666667
        34           1.7000000      7.28723199E+05             2           300             .000000
Summary of preceding table follows:       Grouped data     Ungrouped data
                                 Mean = 1.47283333E+00     1.46254852E+00
                             Variance = 7.89604236E-04     7.00916503E-04
                   Standard deviation = 2.80998974E-02     2.64748277E-02

2 ) -------------------------------------------------------------------------------------------------------------------------------
Statistical distribution of peak voltage at node  "X0003B".   The base voltage for per unit printout is  V-base = 4.28660705E+05
  Interval             voltage         voltage  in     Frequency    Cumulative               Per cent
    number         in per unit      physical units     (density)     frequency     .GE. current value
        29           1.4500000      6.21558022E+05             0             0          100.000000
        30           1.5000000      6.42991058E+05             3             3           99.000000
        31           1.5500000      6.64424093E+05            79            82           72.666667
        32           1.6000000      6.85857128E+05           138           220           26.666667
        33           1.6500000      7.07290163E+05            60           280            6.666667
        34           1.7000000      7.28723199E+05            14           294            2.000000
        35           1.7500000      7.50156234E+05             1           295            1.666667
        36           1.8000000      7.71589269E+05             0           295            1.666667
        37           1.8500000      7.93022304E+05             3           298             .666667
        38           1.9000000      8.14455340E+05             1           299             .333333
        39           1.9500000      8.35888375E+05             1           300             .000000
Summary of preceding table follows:       Grouped data     Ungrouped data
                                 Mean = 1.58066667E+00     1.58107577E+00
                             Variance = 3.11159420E-03     3.02933783E-03
                   Standard deviation = 5.57816655E-02     5.50394207E-02

3 ) -------------------------------------------------------------------------------------------------------------------------------
  SUMMARY   SUMMARY   SUMMARY   SUMMARY   SUMMARY   SUMMARY   SUMMARY   SUMMARY   SUMMARY   SUMMARY   SUMMARY   SUMMARY   SUMMARY
3 ) -------------------------------------------------------------------------------------------------------------------------------
The following is a distribution of peak overvoltages among all output nodes of the last data card that have the same base voltage.
This distribution is for the maximum of the peaks at all output nodes with  V-base = 4.28660705E+05
  Interval             voltage         voltage  in     Frequency    Cumulative               Per cent
    number         in per unit      physical units     (density)     frequency     .GE. current value
        30           1.5000000      6.42991058E+05             0             0          100.000000
        31           1.5500000      6.64424093E+05            82            82           72.666667
        32           1.6000000      6.85857128E+05           135           217           27.666667
        33           1.6500000      7.07290163E+05            61           278            7.333333
        34           1.7000000      7.28723199E+05            16           294            2.000000
        35           1.7500000      7.50156234E+05             1           295            1.666667
        36           1.8000000      7.71589269E+05             0           295            1.666667
        37           1.8500000      7.93022304E+05             3           298             .666667
        38           1.9000000      8.14455340E+05             1           299             .333333
        39           1.9500000      8.35888375E+05             1           300             .000000
Summary of preceding table follows:       Grouped data     Ungrouped data
                                 Mean = 1.58200000E+00     1.58388001E+00
                             Variance = 3.09464883E-03     2.85951941E-03
                   Standard deviation = 5.56295679E-02     5.34744744E-02

Statistical output of branch voltage   0.4287E+06 |-1            X0003BX0003CX0003AX0003BX0003CX0003A

4 ) -------------------------------------------------------------------------------------------------------------------------------
Statistical distribution of peak voltage  for branch  "X0003A"  to  "X0003B".   Base voltage  for per unit output = 4.28660705E+05
  Interval             voltage         voltage  in     Frequency    Cumulative               Per cent
    number         in per unit      physical units     (density)     frequency     .GE. current value
        41           2.0500000      8.78754445E+05             0             0          100.000000
        42           2.1000000      9.00187481E+05           242           242           19.333333
        43           2.1500000      9.21620516E+05             0           242           19.333333
        44           2.2000000      9.43053551E+05             0           242           19.333333
        45           2.2500000      9.64486586E+05             4           246           18.000000
        46           2.3000000      9.85919622E+05            30           276            8.000000
        47           2.3500000      1.00735266E+06            13           289            3.666667
        48           2.4000000      1.02878569E+06             0           289            3.666667
        49           2.4500000      1.05021873E+06             2           291            3.000000
        50           2.5000000      1.07165176E+06             5           296            1.333333
        51           2.5500000      1.09308480E+06             3           299             .333333
        52           2.6000000      1.11451783E+06             1           300             .000000
Summary of preceding table follows:       Grouped data     Ungrouped data
                                 Mean = 2.12300000E+00     2.12324275E+00
                             Variance = 1.10829431E-02     1.11153973E-02
                   Standard deviation = 1.05275558E-01     1.05429585E-01

5 ) -------------------------------------------------------------------------------------------------------------------------------
  SUMMARY   SUMMARY   SUMMARY   SUMMARY   SUMMARY   SUMMARY   SUMMARY   SUMMARY   SUMMARY   SUMMARY   SUMMARY   SUMMARY   SUMMARY
5 ) -------------------------------------------------------------------------------------------------------------------------------
A distribution of peak values among all output branches of the last data card that have the same base value follows.  This
statistical distribution is for the maximum of the peaks at all of these output branches having base  voltage  = 4.28660705E+05
  Interval             voltage         voltage  in     Frequency    Cumulative               Per cent
    number         in per unit      physical units     (density)     frequency     .GE. current value
        49           2.4500000      1.05021873E+06             0             0          100.000000
        50           2.5000000      1.07165176E+06           296           296            1.333333
        51           2.5500000      1.09308480E+06             3           299             .333333
        52           2.6000000      1.11451783E+06             1           300             .000000
Summary of preceding table follows:       Grouped data     Ungrouped data
                                 Mean = 2.47583333E+00     2.47864299E+00
                             Variance = 5.78316611E-05     3.39840066E-05
                   Standard deviation = 7.60471308E-03     5.82958031E-03

Blank card ends statistical tabulation requests.  |BLANK STATISTICS

                                      Sample curve symbols : "A", "B", and "C"
                                      Theoretical curve symbol : "*"
                                      Common curve symbol : "X"

        Switch  "X0001B"  to  "X0002B"            Switch  "X0001A"  to  "X0002A"            Switch  "X0001C"  to  "X0002C"
1.32420000E+00   switchings per column          1.32420000E+00   switchings per column     1.32420000E+00   switchings per column
              Columns                                     Columns                                     Columns
          5   10   15   20   25   30                5   10   15   20   25   30                5   10   15   20   25   30
     +----+----+----+----+----+----+           +----+----+----+----+----+----+           +----+----+----+----+----+----+
    X                                         X                                         X
    X                                         X                                         X
    X                                         X                                         X
    *A                                        X                                         X
    |*A                                       B*                                        |*C
    |A*                                       | X                                       | X
    |   X                                     | B *                                     |   *  C
    |       X                                 |       X                                 |     C *
    |      A    *                             |           *B                            |       C   *
    |                 * A                     |                 *    B                  |                 *  C
    |                       *     A           |                       X                 |                       *    C
    |                      A    *             |                           *   B         |                    C      *
    |  5.5000E-02                 *     A     |  5.5000E-02              B  *           |  5.5000E-02                 *     C
    |                           *      A      |                         B *             |                         C *
    |                  A    *                 |                       * B               |                       *     C
    |               A *                       |                B*                       |            C    *
    |         A *                             |          B*                             |        C  *
    |       * A                               |       X                                 |       *  C
    |  A*                                     |   X                                     | C *
    | *A                                      | X                                       | X
    |X                                        |X                                        |*C
    X                                         *B                                        X
    X                                         X                                         X
    X                                         X                                         *C
    X                                         X                                         X
   Time (scale = 3.33333333E-04  Sec/line)   Time (scale = 3.33333333E-04  Sec/line)   Time  (scale = 3.33333333E-04  Sec/line)

        Switch  "X0003C"  to  "XX0009"            Switch  "X0001B"  to  "X0002B"            Switch  "X0001A"  to  "X0002A"
1.32420000E+00   switchings per column          1.32420000E+00   switchings per column     1.32420000E+00   switchings per column
              Columns                                     Columns                                     Columns
          5   10   15   20   25   30                5   10   15   20   25   30                5   10   15   20   25   30
     +----+----+----+----+----+----+           +----+----+----+----+----+----+           +----+----+----+----+----+----+
    X                                         X                                         X
    X                                         X                                         X
    X                                         X                                         X
    *A                                        X                                         * C
    |X                                        |X                                        |*C
    | *A                                      | X                                       | X
    |  A*                                     |  B*                                     |   X
    |      A*                                 |    B  *                                 |     C *
    |         A *                             |           *  B                          |          C*
    |                 * A                     |                B*                       |                 X
    |                       *     A           |                       *    B            |                       X
    |                           *    A        |                           *B            |                           * C
    |  1.0000E-02                 *A          |  7.0000E-01                 *   B       |  7.0000E-01                C*
    |                           *   A         |                           *  B          |                           *  C
    |                A      *                 |                   B   *                 |                    C  *
    |                 * A                     |            B    *                       |                 X
    |           X                             |         B *                             |           * C
    |     A *                                 |     B *                                 |       X
    A   *                                     |   *  B                                  |   *C
    A *                                       | X                                       C *
    A*                                        |*B                                       |*C
    *A                                        *B                                        X
    X                                         X                                         X
    X                                         *B                                        X
    X                                         X                                         X
   Time (scale = 3.33333333E-04  Sec/line)   Time (scale = 3.33333333E-04  Sec/line)   Time  (scale = 3.33333333E-04  Sec/line)

   Switch  "X0001C"  to  "X0002C"
     1.32420000E+00   switchings per column
              Columns
          5   10   15   20   25   30
     +----+----+----+----+----+----+
    X
    X
    *A
    X
    |X
    |A*
    | A *
    |       X
    |           *    A
    |          A      *
    |                       *    A
    |                         A *
    |  7.0000E-01                A*
    |                          A*
    |                       X
    |                 *  A
    |           *       A
    |    A  *
    |   X
    A *
    A*
    *A
    X
    *A
    X
   Time (scale = 3.33333333E-04  Sec/line)
 .... Questionable Kolmogorov-Smirnov test result = 4.79983461E-01
 .... Questionable Kolmogorov-Smirnov test result = 8.61125218E-01
 .... Questionable Kolmogorov-Smirnov test result = 6.22920778E-01
 .... Questionable Kolmogorov-Smirnov test result = 8.70941508E-02
 .... Questionable Kolmogorov-Smirnov test result = 7.08509700E-01
 .... Questionable Kolmogorov-Smirnov test result = 9.61921384E-01
 .... Questionable Kolmogorov-Smirnov test result = 7.92096056E-01

Actual List Sizes for the preceding solution follow.       11-Nov-18  11.00.00
   Size  1-10:    27    26    38     3   138    13    42  5310     0     0
   Size 11-20:     0     7 -9999 -9999 -9999     0     0     0    23  2972
   Size 21-30:    36   180 14778     0 -9999     9 -9999 -9999 -9999     0
Seconds for overlays  1-5  :     0.000     0.000     0.000  -- (CP: Wait; Real)
Seconds for overlays  6-11 :     0.000     0.000     0.000
Seconds for overlays 12-15 :     0.000     0.000     0.000
Seconds for time-step loop :     0.000     0.000     0.000
Seconds after DELTAT-loop  :     0.000     0.000     0.000
                               ---------------------------
                   Totals  :     0.000     0.000     0.000

