   ---   55   cards of disk file read into card cache cells  1   onward.
 <===> Done with  "/"-card sorting by data class.    Remember that the source file appears different from interpreted input data.
Alternative Transients Program (ATP),  F77 GNU Linux or DOS.  All rights reserved by Can/Am user group of Portland, Oregon, USA.
 Date (dd-mth-yy) and time of day (hh.mm.ss) = 11-Nov-18  11.00.00    Name of disk plot file, if any, is
Consult the 860-page ATP Rule Book of the Can/Am EMTP User Group in Portland,  Oregon, USA.  Source code date is
Total size of LABCOM tables = 16446853 INTEGER words.  31 VARDIM  List Sizes follow:  6002  10K  192K  900  420K  1200  15K
  120K  2250  3800  720  2K  72800  510  800K  800  90  254  800K  100K  3K  15K  192K  120  45K  260K  600  210K  1100  19  200K
--------------------------------------------------+--------------------------------------------------------------------------------
Descriptive interpretation of input data cards.   |  Input data card images are shown below, all 80 columns, character by character
                                                  0         1         2         3         4         5         6         7         8
                                                  012345678901234567890123456789012345678901234567890123456789012345678901234567890
--------------------------------------------------+--------------------------------------------------------------------------------
Comment card.   KOMPAR > 0.                       |C data:Caso0_ReEnergizacao_OTIMIZADA_SemControle.atp
Marker card preceding new EMTP data case.         |BEGIN NEW DATA CASE
Comment card.   KOMPAR > 0.                       |C $DUMMY, XYZ000
Misc. data.     1.000E-06   1.000E+00   0.000E+00 |   1.E-6      1.
Misc. data.  500  1  0  0  1  0  0  1  300  0     |     500       1       0       0       1       0       0       1     300
Statistics data.      1    1    0    0    1    0  |       1       1       0       0       1      -1                               0
Series R-L-C.   5.000E+00  7.500E-02  0.000E+00   |  X0001AX0007A                5.   75.                                         0
Series R-L-C.   5.000E+00  7.500E-02  0.000E+00   |  X0001BX0007B                5.   75.                                         0
Series R-L-C.   5.000E+00  7.500E-02  0.000E+00   |  X0001CX0007C                5.   75.                                         0
Series R-L-C.   2.000E+02  0.000E+00  0.000E+00   |  X0007AX0001A              200.                                               0
Series R-L-C.   2.000E+02  0.000E+00  0.000E+00   |  X0007BX0001B              200.                                               0
Series R-L-C.   2.000E+02  0.000E+00  0.000E+00   |  X0007CX0001C              200.                                               0
Series R-L-C.   1.321E+00  1.401E+00  0.000E+00   |  X0003BXX0008            1.32071401.3                                         0
Series R-L-C.   1.321E+00  1.401E+00  0.000E+00   |  X0003AXX0008            1.32071401.3                                         0
Series R-L-C.   1.321E+00  1.401E+00  0.000E+00   |  X0003CXX0008            1.32071401.3                                         0
Series R-L-C.   3.900E-01  4.138E-01  0.000E+00   |  XX0008                     .39 413.8                                         0
Series R-L-C.   3.000E+01  0.000E+00  0.000E+00   |  XX0009                     30.                                               0
Series R-L-C.   4.000E+02  0.000E+00  0.000E+00   |  X0002AX0010A              400.                                               0
Series R-L-C.   4.000E+02  0.000E+00  0.000E+00   |  X0002BX0010B              400.                                               0
Series R-L-C.   4.000E+02  0.000E+00  0.000E+00   |  X0002CX0010C              400.                                               0
Dynamic $INCLUDE uses fixed RAM cache to delay.   |$INSERT, C:\SimulacaoATP\3\EXT1.pch
J. Marti line, mode  1   parameters begin.        |-1X0010AX0005C                2.  0.00              -2 3
J. Marti line, mode  2   parameters begin.        |-2X0010BX0005A                2.  0.00              -2 3
J. Marti line, mode  3   parameters begin.        |-3X0010CX0005B                2.  0.00              -2 3
TR(1,1 )...  0.671-0.707-0.324                    |  0.67102882 -0.70710678 -0.32400803
TI(1,1 )...  0.000 0.000 0.003                    |  0.00000000  0.00000000  0.00341127
TR(2,1 )...  0.315 0.000 0.889                    |  0.31480489  0.00000000  0.88876566
TI(2,1 )... -0.018 0.000 0.010                    | -0.01839933  0.00000000  0.01048452
TR(3,1 )...  0.671 0.707-0.324                    |  0.67102882  0.70710678 -0.32400803
TI(3,1 )...  0.000 0.000 0.003                    |  0.00000000  0.00000000  0.00341127
Dynamic $INCLUDE uses fixed RAM cache to delay.   |$INSERT, C:\SimulacaoATP\3\OTIM2.pch
J. Marti line, mode  1   parameters begin.        |-1X0004AX0006C                2.  0.00              -2 3
J. Marti line, mode  2   parameters begin.        |-2X0004BX0006A                2.  0.00              -2 3
J. Marti line, mode  3   parameters begin.        |-3X0004CX0006B                2.  0.00              -2 3
TR(1,1 )...  0.671-0.707-0.324                    |  0.67102882 -0.70710678 -0.32400803
TI(1,1 )...  0.000 0.000 0.003                    |  0.00000000  0.00000000  0.00341127
TR(2,1 )...  0.315 0.000 0.889                    |  0.31480489  0.00000000  0.88876566
TI(2,1 )... -0.018 0.000 0.010                    | -0.01839933  0.00000000  0.01048452
TR(3,1 )...  0.671 0.707-0.324                    |  0.67102882  0.70710678 -0.32400803
TI(3,1 )...  0.000 0.000 0.003                    |  0.00000000  0.00000000  0.00341127
Dynamic $INCLUDE uses fixed RAM cache to delay.   |$INSERT, C:\SimulacaoATP\3\OTIM3.pch
J. Marti line, mode  1   parameters begin.        |-1X0005AX0004C                2.  0.00              -2 3
J. Marti line, mode  2   parameters begin.        |-2X0005BX0004A                2.  0.00              -2 3
J. Marti line, mode  3   parameters begin.        |-3X0005CX0004B                2.  0.00              -2 3
TR(1,1 )...  0.671-0.707-0.324                    |  0.67102882 -0.70710678 -0.32400803
TI(1,1 )...  0.000 0.000 0.003                    |  0.00000000  0.00000000  0.00341127
TR(2,1 )...  0.315 0.000 0.889                    |  0.31480489  0.00000000  0.88876566
TI(2,1 )... -0.018 0.000 0.010                    | -0.01839933  0.00000000  0.01048452
TR(3,1 )...  0.671 0.707-0.324                    |  0.67102882  0.70710678 -0.32400803
TI(3,1 )...  0.000 0.000 0.003                    |  0.00000000  0.00000000  0.00341127
Dynamic $INCLUDE uses fixed RAM cache to delay.   |$INSERT, C:\SimulacaoATP\3\EXT4.pch
J. Marti line, mode  1   parameters begin.        |-1X0006AX0003A                2.  0.00              -2 3
J. Marti line, mode  2   parameters begin.        |-2X0006BX0003B                2.  0.00              -2 3
J. Marti line, mode  3   parameters begin.        |-3X0006CX0003C                2.  0.00              -2 3
TR(1,1 )...  0.671-0.707-0.324                    |  0.67102882 -0.70710678 -0.32400803
TI(1,1 )...  0.000 0.000 0.003                    |  0.00000000  0.00000000  0.00341127
TR(2,1 )...  0.315 0.000 0.889                    |  0.31480489  0.00000000  0.88876566
TI(2,1 )... -0.018 0.000 0.010                    | -0.01839933  0.00000000  0.01048452
TR(3,1 )...  0.671 0.707-0.324                    |  0.67102882  0.70710678 -0.32400803
TI(3,1 )...  0.000 0.000 0.003                    |  0.00000000  0.00000000  0.00341127
Blank card ending branches.  IBR, NTOT = 26  27   |BLANK BRANCH
Switch.   5.50E-02  1.00E-03  0.00E+00  3.33E+03  |  X0001BX0002B      .055      .001               3333.STATISTICS               0
Switch.   5.50E-02  1.00E-03  0.00E+00  3.33E+03  |  X0001AX0002A      .055      .001               3333.STATISTICS               0
Switch.   5.50E-02  1.00E-03  0.00E+00  3.33E+03  |  X0001CX0002C      .055      .001               3333.STATISTICS               0
Switch.   1.00E-02  1.00E-03  0.00E+00  0.00E+00  |  X0003CXX0009       .01      .001                    STATISTICS               1
Switch.   7.00E-01  1.00E-03  0.00E+00  0.00E+00  |  X0001BX0002B        .7      .001                    STATISTICS               0
Switch.   7.00E-01  1.00E-03  0.00E+00  0.00E+00  |  X0001AX0002A        .7      .001                    STATISTICS               0
Switch.   7.00E-01  1.00E-03  0.00E+00  0.00E+00  |  X0001CX0002C        .7      .001                    STATISTICS               0
Switch.   0.00E+00  6.98E-01  0.00E+00  0.00E+00  |  X0002AX0010A                .698                                             0
Switch.   0.00E+00  6.98E-01  0.00E+00  0.00E+00  |  X0002BX0010B                .698                                             0
Switch.   0.00E+00  6.98E-01  0.00E+00  0.00E+00  |  X0002CX0010C                .698                                             0
Switch.   7.10E-01  0.00E+00  0.00E+00  0.00E+00  |  X0002AX0010A       .71                                                       0
Switch.   7.10E-01  0.00E+00  0.00E+00  0.00E+00  |  X0002BX0010B       .71                                                       0
Switch.   7.10E-01  0.00E+00  0.00E+00  0.00E+00  |  X0002CX0010C       .71                                                       0
Blank card ending switches.   KSWTCH = 13.        |BLANK SWITCH
Source.   4.29E+05  6.00E+01  0.00E+00 -1.00E+00  |14X0007A  428660.705       60.                                     -1.      100.
Source.   4.29E+05  6.00E+01 -1.20E+02 -1.00E+00  |14X0007B  428660.705       60.     -120.                           -1.      100.
Source.   4.29E+05  6.00E+01 -2.40E+02 -1.00E+00  |14X0007C  428660.705       60.     -240.                           -1.      100.
Blank card ends electric sources.  KCONST = 3     |BLANK SOURCE

     Total network loss  P-loss  by summing injections =   2.681631184947E+08

Card of names for time-step loop output.          |  X0003AX0003BX0003C
Output voltage differences for pairs of A6 names  |-5X0003BX0003CX0003AX0003BX0003CX0003A
Blank card ending requests for output variables.  |BLANK OUTPUT

Column headings for the  7   EMTP output variables follow.  These are divided among the 5 possible classes as follows ....
  First  6     output variables are electric-network voltage differences (upper voltage minus lower voltage);
  Next   1     output variables are branch currents (flowing from the upper node to the lower node);
   Step      Time      X0003A     X0003B     X0003C     X0003B     X0003A     X0003C     X0003C
                                                        X0003C     X0003B     X0003A     XX0009
 ***      Phasor I(0) =  2.4147220E+02                     Switch  "X0001B"  to  "X0002B"  closed in the steady-state.
 ***      Phasor I(0) =  4.1909025E+02                     Switch  "X0001A"  to  "X0002A"  closed in the steady-state.
 ***      Phasor I(0) = -6.5790744E+02                     Switch  "X0001C"  to  "X0002C"  closed in the steady-state.
 ***                    Switch  "X0002A"  to  "X0010A"  closed  after  0.00000000E+00  sec.
 ***                    Switch  "X0002B"  to  "X0010B"  closed  after  0.00000000E+00  sec.
 ***                    Switch  "X0002C"  to  "X0010C"  closed  after  0.00000000E+00  sec.
      0       0.0  273113.442 -329449.54  57176.712 -386626.25 602562.984 -215936.73        0.0
    500     .5E-3   309009.19  -299124.5 -8113.8163 -291010.68 608133.686 -317123.01        0.0
   1000     .1E-2  335426.183  -258772.6 -73495.623 -185276.98 594198.786 -408921.81        0.0
   1500     .0015  349049.101 -209323.75  -136200.8  -73122.95 558372.853  -485249.9        0.0
   2000      .002  505172.402 -35521.704 -531115.63 495593.923 540694.107 -.103629E7        0.0
   2500     .0025  481507.341 132086.549 -625936.83 758023.379 349420.792 -.110744E7        0.0
   3000      .003  407360.789 261397.155 -681465.41 942862.566 145963.633 -.108883E7        0.0
   3500     .0035  303759.509 362106.303 -682563.18 .1044669E7 -58346.794 -986322.69        0.0
   4000      .004   189697.94 459276.659 -631644.86 .1090922E7 -269578.72  -821342.8        0.0
   4500     .0045  70572.3005 538255.353 -567397.45 .1105653E7 -467683.05 -637969.75        0.0
   5000      .005  -64129.574 587910.224 -485343.63 .1073254E7  -652039.8 -421214.06        0.0
   5500     .0055  -256673.54 579444.787 -297950.32 877395.109 -836118.33 -41276.779        0.0
   6000      .006    -407749. 520026.814 -91948.287   611975.1 -927775.81  315800.71        0.0
   6500     .0065  -497995.45 447315.048  79463.303 367851.745 -945310.49 577458.749        0.0
   7000      .007  -547979.38 367967.181 210075.165 157892.016 -915946.56 758054.542        0.0
   7500     .0075  -565550.84 286163.772 294289.921 -8126.1491 -851714.61 859840.759        0.0
   8000      .008  -557208.85 196466.224 350782.161 -154315.94 -753675.08 907991.015        0.0
   8500     .0085  -528533.19 100589.785 391271.659 -290681.87 -629122.97 919804.849        0.0
   9000      .009   -457514.8 12808.2254 394811.145 -382002.92 -470323.03 852325.946        0.0
   9500     .0095  -360145.41  -50774.66 358999.883 -409774.54 -309370.75 719145.297        0.0
  10000       .01  -269891.66 -97537.134 317588.356 -415125.49 -172354.53 587480.018        0.0
 ***                                                             Close switch  "X0003C"  to  "XX0009"  after  1.00010000E-02  sec.
  10500     .0105  -277011.01 -222475.48 29389.4826 -251864.96 -54535.535 306400.496  979.64942
  11000      .011  -206881.31 -264716.33 29276.0528 -293992.39 57835.0291 236157.359 975.868426
  11500     .0115   -148058.7 -312968.04  30950.341 -343918.38 164909.345 179009.039 1031.67803
  12000      .012  -100518.94 -366139.65 34939.6504  -401079.3 265620.708 135458.595 1164.65501
  12500     .0125  -54303.121 -402959.29 37936.4694 -440895.76  348656.17 92239.5907 1264.54898
  13000      .013  -8268.5281 -439743.79 40411.7496 -480155.54  431475.26 48680.2777 1347.05832
  13500     .0135  23.9366062 -482977.15 43126.8364 -526103.98 483001.084 43102.8998 1437.56121
  14000      .014  -17008.089 -585871.28 54464.1819 -640335.46 568863.189  71472.271 1815.47273
  14500     .0145  89309.4088 -565565.22 63762.4632 -629327.69 654874.632 -25546.946 2125.41544
  15000      .015  200222.155 -512793.22 66603.7003 -579396.92 713015.375 -133618.45 2220.12334
  15500     .0155  294372.095 -451174.54 61584.1768 -512758.72 745546.636 -232787.92 2052.80589
  16000      .016  384914.923 -375188.41  52932.138 -428120.54 760103.328 -331982.79  1764.4046
  16500     .0165  472788.717 -277288.14 42556.7235 -319844.87 750076.861 -430231.99 1418.55745
  17000      .017   553619.67  -156598.4 30071.2709 -186669.67 710218.069  -523548.4  1002.3757
  17500     .0175  615252.716 -19066.356 16241.8614 -35308.218 634319.073 -599010.85 541.395381
  18000      .018  638439.193 125906.749 6134.58622 119772.163 512532.444 -632304.61 204.486207
  18500     .0185  629906.574 267565.375 791.589885 266773.785 362341.199 -629114.98 26.3863295
  19000      .019  586702.578 388231.838 -5846.3396 394078.178  198470.74 -592548.92 -194.87799
  19500     .0195  512998.261 487164.221 -14139.226 501303.447 25834.0397 -527137.49 -471.30753
  20000       .02  410251.833 560543.614 -23222.171 583765.785 -150291.78   -433474. -774.07237
  20500     .0205  286230.465 605997.979 -32206.194 638204.174 -319767.51 -318436.66 -1073.5398
  21000      .021  150082.317 622992.854 -40747.666  663740.52 -472910.54 -190829.98 -1358.2555
  21500     .0215  7523.73746 606796.862 -48467.672 655264.534 -599273.12  -55991.41 -1615.5891
  22000      .022  -135921.75 556889.836 -53709.864   610599.7 -692811.58 82211.8827 -1790.3288
  22500     .0225  -263681.53 489870.266 -55755.382 545625.648  -753551.8 207926.147 -1858.5127
  23000      .023  -366552.11 417596.756 -54863.396 472460.152 -784148.86 311688.709 -1828.7799
  23500     .0235  -444431.14 341076.997 -51954.705 393031.702 -785508.13  392476.43 -1731.8235
  24000      .024   -498981.8 260040.967 -47555.948 307596.915 -759022.76 451425.847 -1585.1983
  24500     .0245  -531273.35 176164.672 -41819.262 217983.934 -707438.02  489454.09 -1393.9754
  25000      .025  -542181.69  92954.242 -34996.427 127950.669 -635135.94 507185.268 -1166.5476
  25500     .0255   -534829.1 12502.4637 -27395.524 39897.9882 -547331.57 507433.579 -913.18415
  26000      .026   -513389.7 -65672.064 -18733.109 -46938.955 -447717.63 494656.586 -624.43698
  26500     .0265  -480548.96 -142793.73 -8607.2562 -134186.47 -337755.24 471941.708 -286.90854
  27000      .027  -438465.45 -219928.41 2618.73927 -222547.15 -218537.05 441084.193  87.291309
  27500     .0275  -388107.99 -296026.95 14148.9297 -310175.88 -92081.035 402256.918  471.63099
  28000      .028  -329744.74 -368627.46 25247.4986 -393874.95 38882.7126 354992.242 841.583287
  28500     .0285   -263319.6 -434609.34 35359.8249 -469969.16 171289.741 298679.421 1178.66083
  29000      .029  -188431.04 -490569.11 44008.2035 -534577.31 302138.065 232439.245 1466.94012
  29500     .0295  -105697.22  -533492.7 50771.6923 -584264.39 427795.487 156468.907 1692.38974
  30000       .03  -16969.804 -560496.73 55474.9033 -615971.63 543526.923 72444.7071 1849.16344
  30500     .0305  76160.3585  -567767.4 58168.4878 -625935.89 643927.762 -17991.871 1938.94959
  31000      .031  172163.021 -551483.77 58969.3765 -610453.15 723646.791 -113193.64 1965.64588
  31500     .0315  268198.018  -509799.6 57938.1461 -567737.74 777997.614 -210259.87 1931.27154
  32000      .032  359897.281 -443571.86 55087.5048 -498659.36  803469.14 -304809.78 1836.25016
  32500     .0325  442178.735 -355732.36  50461.431 -406193.79 797911.093  -391717.3  1682.0477
  33000      .033   510232.77 -250445.79 44147.4353 -294593.22 760678.557 -466085.34 1471.58118
  33500     .0335  559931.562 -132899.26 36274.5404  -169173.8 692830.819 -523657.02 1209.15135
  34000      .034  587932.076 -9243.6306 27090.2226 -36333.853 597175.706 -560841.85  903.00742
  34500     .0345  591910.999 113845.307 16988.7448  96856.562 478065.692 -574922.25 566.291493
  35000      .035  570881.404 229828.499 6417.22226 223411.276 341052.905 -564464.18 213.907409
  35500     .0355  525484.497  333070.24 -4217.8762 337288.117 192414.257 -529702.37 -140.59587
  36000      .036  457978.215 419328.529 -14563.874 433892.403  38649.686 -472542.09 -485.46245
  36500     .0365  371942.913 485851.193 -24298.225 510149.419 -113908.28 -396241.14 -809.94085
  37000      .037   271872.59 531276.366 -33125.143 564401.509 -259403.78 -304997.73 -1104.1714
  37500     .0375  162666.469 555387.375  -40788.97 596176.344 -392720.91 -203455.44 -1359.6323
  38000      .038  49234.6938 558867.149 -47065.304 605932.453 -509632.45 -96299.998 -1568.8435
  38500     .0385   -63645.08 543188.059 -51741.549 594929.608 -606833.14 11903.5314 -1724.7183
  39000      .039  -171451.29 510462.056 -54618.422 565080.478 -681913.35 116832.869 -1820.6141
  39500     .0395   -270184.4 463084.363 -55537.265 518621.628 -733268.77  214647.14 -1851.2422
  40000       .04  -356637.83 403333.996 -54412.416 457746.412 -759971.82 302225.413 -1813.7472
  40500     .0405  -428473.55 333182.595 -51248.304 384430.899 -761656.15 377225.251 -1708.2768
  41000      .041  -484092.66 254354.806 -46144.318 300499.124 -738447.47 437948.344 -1538.1439
  41500     .0415   -522478.7 168486.379 -39292.354 207778.733 -690965.08 483186.348 -1309.7451
  42000      .042   -543121.4 77259.8778 -30960.279 108220.156 -620381.27 512161.117 -1032.0093
  % % % % % %   Suspended simulation;  plot data space exhausted;  SPY SPACE is required.   LIMBUF =  340000.
  % % % % % %   Suspended simulation;  plot data space exhausted;  SPY SPACE is required.   LIMBUF =  340000.
  +++  Time-sharing disabled.   Send  user-keyed interrupt to silence alarm.
   Current values.  INDBUF  INDBEG  LIMBUF  MFLUSH  NUMDCD  KCARD1  KCARD2
                    339994      50  340000    1000      46       1      50
Plot timespan now in memory (in sec) = 0.00000000E+00   4.24930000E-02
   ++++  Begin plot-data copy from memory to disk.   MFLUSH, INDBUF, N4, Tbeg,  Tend = 1001  339994       1  -1.00000E+00
1.00000E+19
  42500     .0425  -545976.63 -17488.597 -21465.858 3977.26104 -528488.03 524510.774 -715.52859
  43000      .043  -531402.62 -113656.76 -11157.193 -102499.57 -417745.86 520245.429 -371.90645
  43500     .0435  -500071.26 -208752.02 -404.44755 -208347.57 -291319.24 499666.817 -13.481585
  44000      .044  -452908.17  -299816.7 10406.8526 -310223.55 -153091.47 463315.022 346.895087
  44500     .0445  -391102.83 -383474.04 20888.0187 -404362.06 -7628.7862 411990.847 696.267291
  45000      .045  -316172.73 -456110.28 30661.6422 -486771.92 139937.544 346834.376 1022.05474
  45500     .0455  -230043.35 -514160.75 39373.7903 -553534.54 284117.409 269417.135 1312.45968
  46000      .046  -135103.62 -554433.61 46706.0986 -601139.71 419329.989 181809.722 1556.86995
  46500     .0465  -34204.293 -574399.69 52390.5413 -626790.23 540195.398  86594.834 1746.35138
  47000      .047   69402.976 -572419.16 56224.3827 -628643.54 641822.135 -13178.593 1874.14609
  47500     .0475  172161.597 -547912.57 58080.0895 -605992.66  720074.17 -114081.51 1936.00298
  48000      .048  270328.174 -501473.29 57907.7694 -559381.06 771801.465  -212420.4 1930.25898
  48500     .0485  360123.573 -434887.55  55732.039 -490619.59 795011.123 -304391.53 1857.73463
  49000      .049  437924.483 -351031.52 51645.9788  -402677.5 788956.001  -386278.5 1721.53263
  49500     .0495  500474.332 -253657.14 45803.6657 -299460.81 754131.475 -454670.67 1526.78886
  50000       .05  545078.132 -147113.83  38412.806 -185526.63 692191.961 -506665.33 1280.42687
  50500     .0505  569757.726 -36052.896 29728.5272 -65781.423 605810.622  -540029.2 990.950908
  51000      .051  573361.997  74857.892 20047.4743 54810.4176 498504.105 -553314.52 668.249145
  51500     .0515  555633.661  181195.92 9700.37032  171495.55  374437.74 -545933.29 323.345677
  52000      .052  517229.367 279005.393 -957.63583 279963.029 238223.974   -518187. -31.921194
  52500     .0525  459686.467 364957.638 -11558.142  376515.78 94728.8298 -471244.61  -385.2714
  53000      .053  385335.771 436434.778 -21731.591 458166.369 -51099.007 -407067.36 -724.38636
  53500     .0535  297168.594 491538.267  -31120.25 522658.517 -194369.67 -328288.84 -1037.3417
  54000      .054  198672.898 529041.032 -39391.654 568432.685 -330368.13 -238064.55 -1313.0551
  54500     .0545   93656.262  548310.87 -46251.298 594562.167 -454654.61 -139907.56 -1541.7099
  55000      .055  -13928.882 549229.826  -51453.44 600683.265 -563158.71 -37524.558 -1715.1147
  55500     .0555  -120148.49 532124.359 -54809.672 586934.031 -652272.85 65338.8209 -1826.9891
  56000      .056  -221234.13 497713.129 -56195.585 553908.714 -718947.26 165038.545 -1873.1862
  56500     .0565  -313710.07 447077.024 -55555.706  502632.73 -760787.09 258154.361 -1851.8569
 ***                                                             Open  switch  "X0001B"  to  "X0002B"  after  5.65630000E-02  sec.
  57000      .057  -394495.69 381654.371 -52906.517 434560.888 -776150.06 341589.176 -1763.5506
  57500     .0575  -460981.29 303257.475 -48337.129 351594.604 -764238.76 412644.157 -1611.2376
  58000      .058  -511080.39 214097.036 -42007.232 256104.268 -725177.42 469073.156 -1400.2411
  58500     .0585  -550084.27 134162.233 -34913.143 169075.376 -684246.51 515171.129 -1163.7714
  59000      .059  -566909.71 76395.6612 -26594.885 102990.546 -643305.37 540314.824 -886.49616
  59500     .0595  -559304.85 20959.5361 -16553.641 37513.1774 -580264.39 542751.212 -551.78804
 ***                                                             Open  switch  "X0001A"  to  "X0002A"  after  5.95100000E-02  sec.
  60000       .06  -533437.44 -39596.987 -5928.3002 -33668.687 -493840.46 527509.143 -197.61001
 ***                                                             Open  switch  "X0001C"  to  "X0002C"  after  6.00210000E-02  sec.
  60500     .0605  -490992.81 -104623.33 4906.38734 -109529.72 -386369.48 495899.201 163.546245
  61000      .061   -431566.8 -172028.65 15593.4407 -187622.09 -259538.15 447160.239 519.781355
  61500     .0615  -377520.57 -238481.81 26814.2826 -265296.09 -139038.76 404334.852 893.809422
  62000      .062  -318410.33 -270027.55 33253.4506   -303281. -48382.787 351663.785 1108.44835
  62500     .0625  -259704.58 -297602.95  30522.308 -328125.26 37898.3707 290226.886 1017.41027
  63000      .063  -198461.13 -333975.54 24929.1073 -358904.65 135514.415 223390.237 830.970242
  63500     .0635  -123612.04 -367573.09 19056.4129 -386629.51 243961.055 142668.451 635.213762
  64000      .064  -36965.068 -396297.62  12295.096 -408592.72 359332.551 49260.1638 409.836532
  64500     .0645  53577.0376 -424051.19 4869.68869 -428920.88 477628.229 -48707.349 162.322956
  65000      .065  128616.485 -441615.45 -2348.7276 -439266.72 570231.937 -130965.21 -78.290919
  65500     .0655  181298.462 -443636.52 -9047.8458 -434588.67 624934.982 -190346.31 -301.59486
  66000      .066  202071.878  -467614.3 -12412.747 -455201.55 669686.175 -214484.62 -413.75823
  66500     .0665  247297.398 -473605.35 -12428.208 -461177.14 720902.751 -259725.61  -414.2736
  67000      .067  305258.561 -465460.42 -10873.874 -454586.54 770718.977 -316132.44 -362.46246
  67500     .0675  364343.731 -451323.68 -8365.2871 -442958.39 815667.411 -372709.02  -278.8429
  68000      .068  416734.322 -435213.09 -4533.2501 -430679.84 851947.413 -421267.57 -151.10834
  68500     .0685  448313.051 -399213.12 397.700426 -399610.82 847526.174 -447915.35 13.2566809
  69000      .069  459499.882 -347999.89 5654.76153 -353654.65 807499.769 -453845.12 188.492051
  69500     .0695  468745.168 -295302.71 10746.0348 -306048.75 764047.883 -457999.13  358.20116
  70000       .07  487862.018 -237103.29 12501.6369 -249604.93 724965.309 -475360.38 416.721231
  70500     .0705  496926.038 -183850.57 11904.8416 -195755.41 680776.605  -485021.2 396.828053
  71000      .071  502276.444 -129469.02 10934.5415 -140403.56 631745.461  -491341.9 364.484716
  71500     .0715  501633.556 -70246.681 9626.44497 -79873.126 571880.237 -492007.11 320.881499
  72000      .072  478476.421 3077.97606 7365.41833 -4287.4423 475398.445   -471111. 245.513944
  72500     .0725  436513.889 80037.8411  4369.8055 75668.0356 356476.048 -432144.08 145.660183
  73000      .073  395601.212 148375.141 907.850004 147467.291 247226.071 -394693.36 30.2616668
  73500     .0735  344564.491 197434.897 -1914.8982 199349.795 147129.594 -346479.39  -63.82994
  74000      .074  291086.096 238715.954 -3307.8112 242023.766  52370.142 -294393.91 -110.26037
  74500     .0745  242193.973 279733.852 -3805.4003 283539.252 -37539.879 -245999.37 -126.84668
  75000      .075  188761.958 321213.318 -3702.5555 324915.874 -132451.36 -192464.51 -123.41852
  75500     .0755  116232.749 367447.425 -2952.3789 370399.803 -251214.68 -119185.13  -98.41263
  76000      .076  37869.9758 410592.489 -1474.4582 412066.947 -372722.51 -39344.434 -49.148606
  76500     .0765  -30986.329 440378.187  489.78914 439888.398 -471364.52 31476.1179 16.3263047
  77000      .077  -95564.772   454998.4 3044.82435 451953.575 -550563.17  98609.596 101.494145
  77500     .0775  -149527.46 462601.951 4953.43738 457648.514 -612129.41   154480.9 165.114579
  78000      .078  -200503.48 459471.236 5777.47527  453693.76 -659974.72 206280.957 192.582509
  78500     .0785   -254630.1 453912.794 6251.57808 447661.216 -708542.89 260881.676 208.385936
  79000      .079  -314798.73 452364.416 6549.81168 445814.604 -767163.15 321348.547 218.327056
  79500     .0795  -366904.05 445965.607 6208.96814 439756.639 -812869.66 373113.017 206.965605
  80000       .08    -404833. 424291.062  5321.1084 418969.953 -829124.06 410154.111  177.37028
  80500     .0805  -431171.29 389920.203 4182.93102 385737.272  -821091.5 435354.224 139.431034
  81000      .081  -449447.35 343610.622 2874.75039 340735.871 -793057.97 452322.097 95.8250129
  81500     .0815  -463103.33 287395.454 1976.95858 285418.495 -750498.79 465080.291 65.8986192
  82000      .082  -475674.62 235009.418 1451.91456 233557.503 -710684.04 477126.537 48.3971519
  82500     .0825  -486528.08 189321.286 951.797038 188369.489 -675849.37 487479.882 31.7265679
  83000      .083  -485685.83  138725.69 518.028821 138207.662 -624411.52 486203.861 17.2676274
  83500     .0835  -469686.55 78857.0538 567.317756  78289.736 -548543.61 470253.872 18.9105919
  84000      .084  -440711.56 14475.3856 1078.48704 13396.8985 -455186.95  441790.05 35.9495681
  84500     .0845  -404082.52 -53425.083  1979.8026 -55404.886 -350657.44 406062.323   65.99342
  % % % % % %   Suspended simulation;  plot data space exhausted;  SPY SPACE is required.   LIMBUF =  340000.
  % % % % % %   Suspended simulation;  plot data space exhausted;  SPY SPACE is required.   LIMBUF =  340000.
  +++  Time-sharing disabled.   Send  user-keyed interrupt to silence alarm.
   Current values.  INDBUF  INDBEG  LIMBUF  MFLUSH  NUMDCD  KCARD1  KCARD2
                    339994      50  340000    1001      46       1      50
Plot timespan now in memory (in sec) = 4.24919985E-02   8.49850000E-02
   ++++  Begin plot-data copy from memory to disk.   MFLUSH, INDBUF, N4, Tbeg,  Tend = 1002  339994       1  -1.00000E+00
1.00000E+19
  85000      .085  -360643.47 -119717.06 3010.92717 -122727.99 -240926.42 363654.401 100.364239
  85500     .0855  -320617.08 -176026.46   3681.147 -179707.61 -144590.61 324298.223   122.7049
  86000      .086  -281154.46 -223189.38 3927.59109 -227116.97 -57965.087 285082.056 130.919703
  86500     .0865  -231113.03 -269629.47 4058.34451 -273687.82 38516.4426 235171.377  135.27815
  87000      .087  -168979.41 -315189.14 4126.17126 -319315.31 146209.723 173105.583 137.539042
  87500     .0875  -100582.73 -357948.65 3977.27486 -361925.92 257365.919 104560.002 132.575829
  88000      .088  -30934.844 -396790.26 3681.96608 -400472.23  365855.42 34616.8099 122.732203
  88500     .0885  36126.1162 -428298.02  3255.6194 -431553.64 464424.134 -32870.497 108.520647
  89000      .089  90893.9894 -446738.05 2769.76975 -449507.82 537632.043  -88124.22 92.3256583
  89500     .0895  140871.956 -454150.54 2209.72938 -456360.27 595022.496 -138662.23  73.657646
  90000       .09   196098.95 -457394.51 1616.45065 -459010.96 653493.457  -194482.5 53.8816882
  90500     .0905  254134.374 -456461.61 1092.64035 -457554.25 710595.983 -253041.73 36.4213452
  91000      .091   309245.63 -450412.96 792.324401 -451205.28 759658.588 -308453.31 26.4108134
  91500     .0915  358797.136 -437491.01  780.97807 -438271.98 796288.142 -358016.16 26.0326023
  92000      .092  397277.116 -415020.81  1015.2613 -416036.07 812297.928 -396261.86 33.8420433
  92500     .0925  420202.539 -379132.73 1332.47648 -380465.21 799335.269 -418870.06 44.4158825
  93000      .093  435629.508 -335642.37  1475.0346 -337117.41  771271.88 -434154.47 49.1678198
  93500     .0935  450598.018 -291362.53 1481.16414 -292843.69 741960.548 -449116.85  49.372138
  94000      .094  462415.272 -245460.16 1547.04336  -247007.2  707875.43 -460868.23 51.5681119
  94500     .0945  468235.957 -196107.63 1698.67122 -197806.31 664343.591 -466537.29  56.622374
  95000      .095  465854.453 -142995.79  1839.2425 -144835.04 608850.247 -464015.21 61.3080834
  95500     .0955  449354.266 -84091.171  1934.6048 -86025.776 533445.437 -447419.66 64.4868266
  96000      .096  418481.335 -18534.403 1868.50407 -20402.907 437015.738 -416612.83 62.2834692
  96500     .0965  381629.559 45555.2731  1629.3624 43925.9107 336074.286  -380000.2 54.3120799
  97000      .097  344606.942 103630.597 1374.71363 102255.884 240976.345 -343232.23 45.8237875
  97500     .0975  305577.341 157526.408 1182.67049 156343.738 148050.933 -304394.67 39.4223495
  98000      .098  262586.277 208709.241 1015.56487 207693.676 53877.0355 -261570.71 33.8521624
  98500     .0985  213736.207 256848.349  938.46065 255909.889 -43112.143 -212797.75 31.2820217
  99000      .099  154822.494 305039.279 983.043795 304056.235 -150216.79 -153839.45 32.7681265
  99500     .0995  88791.3371  351973.71 1034.14174 350939.568 -263182.37 -87757.195 34.4713915
 100000       0.1   24701.222  390062.68 1085.43185 388977.248 -365361.46  -23615.79 36.1810615
 100500     .1005  -33806.781 417027.848 1180.73311 415847.115 -450834.63 34987.5146 39.3577704
 101000      .101  -88995.979 434984.387 1307.51012 433676.877 -523980.37 90303.4887 43.5836706
 101500     .1015  -142531.65 445649.871 1463.71017 444186.161 -588181.52 143995.364 48.7903389
 102000      .102  -195386.92 450354.245 1701.02471 448653.221 -645741.17 197087.945 56.7008238
 102500     .1025  -250524.95 452676.684 1933.76893 450742.915 -703201.64 252458.723 64.4589642
 103000      .103  -303805.51 449871.248 2041.59033 447829.657 -753676.76 305847.102 68.0530109
 103500     .1035  -347130.11 435840.036 2057.75028 433782.286 -782970.15 349187.861 68.5916758
 104000      .104  -379758.94 410362.029 2064.75342 408297.276 -790120.97 381823.698 68.8251141
 104500     .1045  -404406.04 376424.341 2084.33469 374340.006 -780830.38  406490.37 69.4778229
 105000      .105  -422706.01  336545.12 2113.61196 334431.508 -759251.13 424819.625  70.453732
 105500     .1055  -436273.78 293401.931 2146.89273 291255.038 -729675.71  438420.67 71.5630911
 106000      .106  -447655.53 250100.479  2129.9805 247970.498 -697756.01 449785.514   70.99935
 106500     .1065  -452123.18 203566.856 2044.90485 201521.951 -655690.04 454168.088  68.163495
 107000      .107   -443672.1 149713.746 1961.27511  147752.47 -593385.84 445633.371  65.375837
 107500     .1075  -423984.69 90087.9884 1947.58861 88140.3998 -514072.68 425932.283 64.9196204
 108000      .108  -396448.78 28155.8968 1981.82832 26174.0685 -424604.68 398430.611 66.0609439
 108500     .1085  -363338.39 -33576.482 2034.20397 -35610.686 -329761.91 365372.594 67.8067989
 109000      .109  -327593.09  -91911.66 2088.17459 -93999.835 -235681.43 329681.266 69.6058197
 109500     .1095  -290703.61  -144590.3 2100.85243 -146691.15 -146113.31 292804.465 70.0284145
 110000       .11  -247760.17 -194905.62  2047.1406 -196952.76  -52854.55 249807.311 68.2380201
 110500     .1105  -195538.48  -245664.3 1977.65536 -247641.95 50125.8211 197516.132 65.9218452
 111000      .111  -137402.87 -294693.17 1941.77991 -296634.95 157290.294 139344.653  64.725997
 111500     .1115  -77240.753 -339029.69    1917.68 -340947.37 261788.933 79158.4334 63.9226665
 112000      .112  -17575.144 -376807.81 1896.87121 -378704.68 359232.668 19472.0154 63.2290404
 112500     .1125  38188.9828 -405167.34 1859.69092 -407027.03  443356.32 -36329.292 61.9896973
 113000      .113  90022.6708 -423507.65 1746.78125 -425254.44 513530.325  -88275.89 58.2260415
 113500     .1135  142626.006 -435976.26 1557.14506  -437533.4 578602.263 -141068.86 51.9048353
 114000      .114  197182.723 -444637.02  1380.7988 -446017.82 641819.747 -195801.92 46.0266266
 114500     .1145  250006.451 -447499.56   1268.452 -448768.01 697506.013   -248738. 42.2817333
 115000      .115  297626.997 -442667.47 1199.57123 -443867.04 740294.462 -296427.43 39.9857077
 115500     .1155  338007.593 -429263.08 1162.23838 -430425.32 767270.678 -336845.36 38.7412794
 116000      .116  368411.287 -405563.83 1119.38842 -406683.22 773975.114  -367291.9 37.3129474
 116500     .1165  390501.228 -373039.66 1014.05457 -374053.72  763540.89 -389487.17 33.8018189
 117000      .117  409094.025 -336449.36 875.511992 -337324.87 745543.386 -408218.51 29.1837331
 117500     .1175   424552.51 -297228.97 783.554605 -298012.53 721781.482 -423768.96 26.1184868
 118000      .118  433763.966 -253991.92  751.58932 -254743.51 687755.886 -433012.38 25.0529773
 118500     .1185  434361.458 -205994.14 753.581093 -206747.72 640355.602 -433607.88 25.1193698
 119000      .119  425188.023 -153150.95 776.734603 -153927.69 578338.977 -424411.29 25.8911534
 119500     .1195  405044.198 -94931.314 781.318252 -95712.633 499975.513 -404262.88 26.0439417
 120000       .12  377334.272 -34306.869 725.574348 -35032.443 411641.141  -376608.7 24.1858116
 120500     .1205  346963.552 24149.8819 647.962163 23501.9197  322813.67 -346315.59 21.5987388
 121000      .121  313910.655 79699.5978 608.867803   79090.73 234211.057 -313301.79 20.2955934
 121500     .1215  275911.365 133426.937 614.704954 132812.232 142484.428 -275296.66 20.4901651
 122000      .122  231907.491 185614.038 654.774822 184959.264 46293.4528 -231252.72 21.8258274
 122500     .1225  181516.491 236326.323 717.233841 235609.089 -54809.832 -180799.26 23.9077947
 123000      .123  125142.457 285453.284 759.312378 284693.972 -160310.83 -124383.14 25.3104126
 123500     .1235  67294.1524 329560.154  753.84152 328806.313   -262266. -66540.311 25.1280507
 124000      .124  12257.6757 365196.091 744.836624 364451.254 -352938.42 -11512.839 24.8278875
 124500     .1245  -40480.449 392736.534 780.799985 391955.734 -433216.98 41261.2489 26.0266662
 125000      .125  -92593.635 413690.045 857.986035 412832.059 -506283.68  93451.621 28.5995345
 125500     .1255  -144418.38   428652.3  961.01599 427691.284 -573070.68 145379.394 32.0338663
 126000      .126  -196206.19 438299.313 1069.54468 437229.769  -634505.5 197275.731 35.6514893
 126500     .1265   -246647.2 442465.721 1141.49206 441324.229 -689112.92 247788.692 38.0497355
 127000      .127  -291199.44 438186.471 1167.60533 437018.866 -729385.91 292367.048 38.9201776
  % % % % % %   Suspended simulation;  plot data space exhausted;  SPY SPACE is required.   LIMBUF =  340000.
  % % % % % %   Suspended simulation;  plot data space exhausted;  SPY SPACE is required.   LIMBUF =  340000.
  +++  Time-sharing disabled.   Send  user-keyed interrupt to silence alarm.
   Current values.  INDBUF  INDBEG  LIMBUF  MFLUSH  NUMDCD  KCARD1  KCARD2
                    339994      50  340000    1002      46       1      50
Plot timespan now in memory (in sec) = 8.49839970E-02   1.27477000E-01
   ++++  Begin plot-data copy from memory to disk.   MFLUSH, INDBUF, N4, Tbeg,  Tend = 1003  339994       1  -1.00000E+00
1.00000E+19
 127500     .1275  -327072.35 423757.687 1195.10997 422562.577 -750830.04 328267.462 39.8369989
 128000      .128  -355657.32 400873.174 1255.99881 399617.175  -756530.5 356913.322 41.8666271
 128500     .1285   -378719.9 371713.188 1334.32428 370378.864 -750433.09 380054.229 44.4774759
 129000      .129  -396769.55 337476.628 1416.48827  336060.14 -734246.18 398186.043 47.2162755
 129500     .1295  -410470.01 299575.991 1485.52559 298090.466   -710046. 411955.533 49.5175195
 130000       .13  -418371.62 257970.245 1508.68903 256461.556 -676341.86 419880.308 50.2896345
 130500     .1305  -416839.19 210497.953 1493.52148 209004.431 -627337.14 418332.707 49.7840495
 131000      .131  -405079.84 157073.184 1487.07703 155586.107 -562153.02 406566.916 49.5692345
 131500     .1315  -385565.56 100277.127 1507.09896 98770.0281 -485842.69 387072.659 50.2366319
 132000      .132  -360521.96 42570.8206 1535.19904 41035.6216 -403092.78 362057.155 51.1733012
 132500     .1325  -331035.87 -14509.573 1561.26922 -16070.842  -316526.3  332597.14 52.0423074
 133000      .133  -298205.18 -69362.807 1566.12763 -70928.934 -228842.38 299771.311 52.2042544
 133500     .1335  -260777.79 -122314.64 1523.77854 -123838.42 -138463.16 262301.572 50.7926179
 134000      .134  -216361.75  -175052.1 1454.64678 -176506.74 -41309.649 217816.393 48.4882261
 134500     .1345  -165901.33 -226803.09 1402.76851 -228205.86 60901.7616 167304.101 46.7589502
 135000      .135  -112560.73 -274963.67 1373.80417 -276337.48 162402.945 113934.531 45.7934724
 135500     .1355   -58724.01   -317548. 1348.98144 -318896.98 258823.988 60072.9917  44.966048
 136000      .136  -5799.0997 -353363.51 1317.06696 -354680.58 347564.409 7116.16665 43.9022319
 136500     .1365  45196.2676 -381494.82 1257.10306 -382751.92 426691.088 -43939.165 41.9034354
 137000      .137  95596.9347 -403130.45 1155.59068 -404286.04 498727.381 -94441.344 38.5196894
 137500     .1375  146918.223  -419989.3 1044.41891 -421033.72 566907.524  -145873.8 34.8139637
 138000      .138  197365.159 -431292.27 961.484657 -432253.76 628657.431 -196403.67 32.0494886
 138500     .1385  243909.797 -435198.92 903.016824 -436101.94 679108.718 -243006.78 30.1005608
 139000      .139   284712.19 -430795.67 851.907546 -431647.58 715507.864 -283860.28 28.3969182
 139500     .1395  318714.301 -417758.52 796.749803 -418555.27 736472.822 -317917.55 26.5583268
 140000       .14  345737.979 -396377.82 717.994377 -397095.81 742115.798 -345019.98 23.9331459
 140500     .1405  367726.037  -368880.5 613.197318  -369493.7  736606.54 -367112.84 20.4399106
 141000      .141  385913.857 -337198.79 517.910466  -337716.7 723112.649 -385395.95 17.2636822
 141500     .1415   398585.95 -300941.18 460.071148 -301401.25  699527.13 -398125.88 15.3357049
 142000      .142  403607.386 -259238.92 429.144818 -259668.06 662846.302 -403178.24 14.3048273
 142500     .1425  400230.097 -212221.97 409.423085  -212631.4 612452.071 -399820.67 13.6474362
 143000      .143  388289.016 -160373.12 388.030216 -160761.15 548662.132 -387900.99 12.9343405
 143500     .1435   368857.44 -105010.38 346.295092 -105356.67 473867.817 -368511.15 11.5431697
 144000      .144  344638.254 -48948.076 289.738778 -49237.815  393586.33 -344348.52 9.65795925
 144500     .1445  316860.331 6039.19341 253.806259 5785.38715 310821.138 -316606.53 8.46020864
 145000      .145  284323.895 60220.1232 256.498435 59963.6248 224103.771  -284067.4 8.54994784
 145500     .1455  245984.582 113942.362 283.051439 113659.311 132042.219 -245701.53 9.43504796
 146000      .146  202122.924  166665.05 318.634429 166346.415 35457.8747 -201804.29 10.6211476
 146500     .1465  153436.494 217686.297 349.206965  217337.09 -64249.802 -153087.29 11.6402322
 147000      .147  101977.249 265376.582 359.200291 265017.382 -163399.33 -101618.05  11.973343
 147500     .1475  50740.8163 307208.921 361.363916 306847.557  -256468.1 -50379.452 12.0454639
 148000      .148  687.611309 342246.727 388.149913 341858.578 -341559.12  -299.4614 12.9383304
 148500     .1485  -49097.261 371224.798 447.115639 370777.682 -420322.06 49544.3763 14.9038546
 149000      .149  -99020.521 394663.003 520.953603 394142.049 -493683.52 99541.4749 17.3651201
 149500     .1495  -148416.42 412382.668 595.982152 411786.686 -560799.09 149012.402 19.8660717
 150000       .15  -196285.91 424112.099 657.924285 423454.174   -620398.  196943.83 21.9308095
 150500     .1505  -240373.46 428638.651 695.964108 427942.686 -669012.11 241069.424 23.1988036
 151000      .151  -278233.74 424456.204 727.866965 423728.337 -702689.94 278961.607 24.2622322
 151500     .1515  -309739.36 411899.902 780.439484 411119.463 -721639.26   310519.8 26.0146495
 152000      .152  -336085.41 392508.837 852.549769 391656.287 -728594.24 336937.956 28.4183256
 152500     .1525  -357735.49 367354.414 927.173428  366427.24 -725089.91 358662.666 30.9057809
 153000      .153   -374381.1 336972.191 992.534554 335979.657 -711353.29 375373.636 33.0844851
 153500     .1535  -385356.06 301711.699 1035.42557 300676.273 -687067.76 386391.482 34.5141857
 154000      .154  -388947.02 261001.595 1051.42199 259950.173 -649948.62 389998.442 35.0473998
 154500     .1545  -383921.98  214472.94 1062.06917 213410.871 -598394.92 384984.051 35.4023058
 155000      .155  -371326.17 163538.204 1088.30079 162449.904 -534864.37 372414.468 36.2766931
 155500     .1555  -352957.39 110284.692 1123.41793 109161.274 -463242.08 354080.808 37.4472643
 156000      .156  -329715.37 56104.6469 1152.34483 54952.3021 -385820.02 330867.718 38.4114943
 156500     .1565  -301950.51 1934.26138 1165.34472 768.916668 -303884.77 303115.853 38.8448239
 157000      .157  -269532.28 -51677.182 1151.78815 -52828.971  -217855.1  270684.07 38.3929384
 157500     .1575  -231514.34 -105037.05 1114.37675 -106151.42 -126477.29 232628.716 37.1458918
 158000      .158   -187913.2  -157895.8 1076.66712 -158972.47 -30017.397 188989.863  35.888904
 158500     .1585  -140695.01 -208503.79  1053.3387 -209557.13  67808.778 141748.349   35.11129
 159000      .159  -92007.817   -254951. 1034.22004 -255985.22 162943.184 93042.0371 34.4740014
 159500     .1595  -42979.165 -296178.85 1006.67401 -297185.53 253199.689  43985.839 33.5558004
 160000       .16  5719.63247 -331558.28 962.981295 -332521.26 337277.915 -4756.6512 32.0993765
 160500     .1605  54059.6554 -361040.53 896.077992 -361936.61 415100.184 -53163.577 29.8692664
 161000      .161  102587.111 -385277.63    814.869  -386092.5 487864.743 -101772.24    27.1623
 161500     .1615  150612.561  -404118.9 742.632879 -404861.54 554731.464 -149869.93 24.7544293
 162000      .162  195992.504 -416274.93 687.722633 -416962.65 612267.434 -195304.78 22.9240878
 162500     .1625  236907.614 -420697.29 638.242124 -421335.54 657604.907 -236269.37 21.2747375
 163000      .163  272599.405  -417208.5 583.929746 -417792.43  689807.91 -272015.48 19.4643249
 163500     .1635  302759.612 -406023.85 518.503608 -406542.35 708783.457 -302241.11 17.2834536
 164000      .164   327822.67 -388019.36 438.392867 -388457.75  715842.03 -327384.28 14.6130956
 164500     .1645  348508.983 -364488.72 356.737002 -364845.46 712997.703 -348152.25 11.8912334
 165000      .165  364190.292  -335737.8 294.231863 -336032.03 699928.092 -363896.06 9.80772878
 165500     .1655  373297.958 -301258.45 252.961641 -301511.41 674556.409   -373045.  8.4320547
 166000      .166  374943.712 -261011.15 220.099787 -261231.25 635954.864 -374723.61 7.33665958
 166500     .1665  369212.937 -215694.32 186.857045 -215881.17 584907.254 -369026.08 6.22856816
 167000      .167  356635.477 -166316.82 147.499224 -166464.32 522952.301 -356487.98 4.91664079
 167500     .1675  338445.249 -114477.21  101.45318 -114578.67 452922.464  -338343.8 3.38177268
 168000      .168  315799.103 -61805.579 63.8787538 -61869.458 377604.682 -315735.22 2.12929179
 168500     .1685  288486.722 -8813.7207 50.9169924 -8864.6377 297300.443 -288435.81 1.69723308
 169000      .169  255778.819 44548.5828 58.8511394 44489.7317 211230.236 -255719.97 1.96170465
 169500     .1695  217786.425 97793.8708 74.5147527  97719.356 119992.554 -217711.91 2.48382509
  % % % % % %   Suspended simulation;  plot data space exhausted;  SPY SPACE is required.   LIMBUF =  340000.
  % % % % % %   Suspended simulation;  plot data space exhausted;  SPY SPACE is required.   LIMBUF =  340000.
  +++  Time-sharing disabled.   Send  user-keyed interrupt to silence alarm.
   Current values.  INDBUF  INDBEG  LIMBUF  MFLUSH  NUMDCD  KCARD1  KCARD2
                    339994      50  340000    1003      46       1      50
Plot timespan now in memory (in sec) = 1.27476007E-01   1.69969000E-01
   ++++  Begin plot-data copy from memory to disk.   MFLUSH, INDBUF, N4, Tbeg,  Tend = 1004  339994       1  -1.00000E+00
1.00000E+19
 170000       .17  175384.046 149922.626 90.0080684 149832.617 25461.4206 -175294.04 3.00026895
 170500     .1705  129831.228 199730.004  99.974691 199630.029 -69898.776 -129731.25  3.3324897
 171000      .171  82904.8065 245599.443  106.50272 245492.941 -162694.64 -82798.304 3.55009068
 171500     .1715  35901.5204  286277.09 124.949887  286152.14 -250375.57  -35776.57 4.16499624
 172000      .172  -11200.909 321660.983 165.984588 321494.999 -332861.89 11366.8934 5.53281959
 172500     .1725   -58637.58 351994.771  221.47564 351773.295 -410632.35 58859.0555 7.38252133
 173000      .173  -105811.01 376997.766 278.791937 376718.974 -482808.77 106089.798 9.29306458
 173500     .1735  -151622.71 396089.654 330.906556 395758.747 -547712.36 151953.618 11.0302185
 174000      .174  -194689.06 408552.121 373.341925 408178.779 -603241.18 195062.402 12.4447308
 174500     .1745   -233380.5 413449.362 410.736789 413038.625 -646829.86 233791.235 13.6912263
 175000      .175  -266897.85 410496.725 457.584826  410039.14 -677394.58 267355.438 15.2528275
 175500     .1755  -295625.48 400450.663 519.384772 399931.278 -696076.14 296144.862 17.3128257
 176000      .176  -319921.37 384176.536 585.565245 383590.971 -704097.91 320506.939 19.5188415
 176500     .1765   -339401.7 362028.176  645.05506 361383.121 -701429.88 340046.759 21.5018353
 177000      .177   -353396.2 334172.245 692.181605 333480.064 -687568.45 354088.383 23.0727202
 177500     .1775  -361032.83 300624.503 724.356462 299900.147 -661657.34  361757.19 24.1452154
 178000      .178  -361454.29 261325.041 748.870206 260576.171 -622779.33 362203.157 24.9623402
 178500     .1785  -354832.03 216982.673 778.917294 216203.755  -571814.7 355610.949 25.9639098
 179000      .179  -342270.09 169091.878 815.871709 168276.006 -511361.96 343085.958 27.1957236
 179500     .1795  -324615.53 118985.348 848.701671 118136.646 -443600.88 325464.231 28.2900557
 180000       .18  -302061.62 67464.6471 868.792183  66595.855 -369526.26  302930.41 28.9597394
 180500     .1805  -274614.42 15144.3826 872.404085 14271.9785 -289758.81 275486.828 29.0801362
 181000      .181  -242103.35 -37586.084 859.673589 -38445.758 -204517.27 242963.024 28.6557863
 181500     .1815   -204557.1 -90328.108 840.286252 -91168.394 -114228.99 205397.387 28.0095417
 182000      .182  -163038.79 -141948.08 825.724395  -142773.8 -21090.708  163864.51 27.5241465
 182500     .1825  -119191.91 -190859.21  814.31575 -191673.52  71667.301 120006.222 27.1438583
 183000      .183  -74169.241 -235890.39  795.92508 -236686.31 161721.148 74965.1658  26.530836
 183500     .1835  -28521.338 -276420.39 764.642799 -277185.04 247899.055  29285.981 25.4880933
 184000      .184  17395.9315 -312064.82 718.750485 -312783.57 329460.754 -16677.181 23.9583495
 184500     .1845  63420.6669 -342726.79 661.177758 -343387.97  406147.46 -62759.489 22.0392586
 185000      .185  109083.666 -368222.03 603.085487 -368825.12 477305.699 -108480.58 20.1028496
 185500     .1855  153025.892 -387734.06 553.573744 -388287.64 540759.954 -152472.32 18.4524581
 186000      .186  193689.424 -400298.42 508.623817 -400807.04 593987.843  -193180.8 16.9541272
 186500     .1865  230196.111 -405522.98 459.447527 -405982.43 635719.094 -229736.66 15.3149176
 187000      .187  262226.128 -403523.82 402.316204 -403926.14 665749.948 -261823.81 13.4105401
 187500     .1875  289695.191 -394668.09  337.05789 -395005.15 684363.284 -289358.13  11.235263
 188000      .188  312708.771 -379583.98 268.698362 -379852.68 692292.749 -312440.07 8.95661206
 188500     .1885  330985.358 -358689.31 208.430636 -358897.74 689674.666 -330776.93 6.94768786
 189000      .189  343553.538  -331859.4 162.133056 -332021.53 675412.939 -343391.41 5.40443522
 189500     .1895   349557.98 -299020.65  123.75553 -299144.41  648578.63 -349434.22 4.12518434
 190000       .19  348899.541 -260683.46 85.6376739  -260769.1    609583.  -348813.9 2.85458913
 190500     .1905  341949.424 -217736.38 45.3073386 -217781.69 559685.805 -341904.12 1.51024462
 191000      .191  329306.602 -171252.92 3.43062578 -171256.35 500559.521 -329303.17 .114354193
 191500     .1915  311673.747 -122430.79 -33.939233 -122396.86 434104.542 -311707.69 -1.1313078
 192000      .192  289269.796 -72088.778 -57.049849 -72031.728 361358.574 -289326.85 -1.9016616
 192500     .1925  261796.327 -20553.966 -63.795064 -20490.171 282350.293 -261860.12 -2.1265021
 193000      .193  229257.193 31710.2959 -61.917878 31772.2138 197546.897 -229319.11 -2.0639293
 193500     .1935  192347.566 83765.1849 -58.251534 83823.4364 108582.382 -192405.82 -1.9417178
 194000      .194  152080.717 134476.222 -54.732111 134530.954  17604.495 -152135.45 -1.8244037
 194500     .1945  109608.973 182644.351 -50.298781  182694.65 -73035.378 -109659.27  -1.676626
 195000      .195  66015.5346 227141.117 -38.708953 227179.826 -161125.58 -66054.244 -1.2902984
 195500     .1955   21789.056 267371.623 -12.542059 267384.165 -245582.57 -21801.598 -.41806865
 196000      .196  -22975.538  303182.34  26.731648 303155.608 -326157.88 23002.2695 .891054935
 196500     .1965  -67816.093 334253.922 70.4093853 334183.513 -402070.01  67886.502 2.34697951
 197000      .197  -111744.48 359936.355 112.555099   359823.8 -471680.83 111857.034 3.75183662
 197500     .1975  -153634.35 379539.407  151.65247 379387.754 -533173.76 153786.002 5.05508234
 198000      .198  -192354.12 392411.499 189.260134 392222.239 -584765.62 192543.382 6.30867114
 198500     .1985  -227040.72 398134.529 231.523144 397903.006 -625175.25 227272.243 7.71743815
 199000      .199  -257496.96 396885.457 283.441168 396602.016 -654382.42 257780.399 9.44803894
 199500     .1995  -283806.55 389173.663 340.933406  388832.73 -672980.21 284147.484 11.3644469
 200000       0.2  -305678.59  375296.14 395.461308 374900.679 -680974.73 306074.049 13.1820436
 200500     .2005  -322474.26 355314.745 442.458866 354872.286 -677789.01 322916.724 14.7486289
 201000      .201  -333554.55 329313.247 481.254785 328831.993  -662867.8 334035.804 16.0418262
 201500     .2015  -338383.73 297443.339 514.386542 296928.952 -635827.07 338898.113 17.1462181
 202000      .202  -336835.95 260156.679 548.007495 259608.671 -596992.63 337383.959 18.2669165
 202500     .2025  -329421.83 218429.766 585.154683 217844.612  -547851.6 330006.984 19.5051561
 203000      .203  -316780.09 173382.773  620.46468 172762.308 -490162.87 317400.558  20.682156
 203500     .2035  -299157.62 125831.628 646.695851 125184.932 -424989.25 299804.317 21.5565284
 204000      .204  -276567.85 76373.5758 661.155219 75712.4206 -352941.43 277229.008 22.0385073
 204500     .2045  -249071.05 25592.8964 664.520448 24928.3759 -274663.95 249735.573 22.1506816
 205000      .205  -216866.87 -25899.109 660.680067 -26559.789 -190967.77 217527.555 22.0226689
 205500     .2055  -180598.63 -77217.153 655.841844 -77872.995 -103381.47 181254.469 21.8613948
 206000      .206  -141399.37 -127118.97 651.570198 -127770.54 -14280.406 142050.943 21.7190066
 206500     .2065  -100327.56 -174443.18 642.306606 -175085.49 74115.6258 100969.864 21.4102202
 207000      .207   -58002.39 -218433.13 622.736573 -219055.87 160430.744 58625.1261 20.7578858
 207500     .2075  -14844.385 -258573.43 592.112637 -259165.54 243729.044 15436.4978 19.7370879
 208000      .208  28712.2825 -294431.77 552.551597 -294984.32 323144.051 -28159.731 18.4183866
 208500     .2085   72118.276 -325598.47 509.129716 -326107.59 397716.741 -71609.146 16.9709905
 209000      .209  114436.844 -351445.59 467.730861 -351913.32 465882.431 -113969.11 15.5910287
 209500     .2095  154456.852 -371168.19 428.580499 -371596.77 525625.045 -154028.27 14.2860166
 210000       .21  191246.754 -384219.58 386.393905 -384605.98 575466.336 -190860.36 12.8797968
 210500     .2105  224354.922 -390497.39 337.682399 -390835.07 614852.308 -224017.24   11.25608
 211000      .211  253526.662 -390130.87 283.133134 -390414.01 643657.536 -253243.53 9.43777113
 211500     .2115  278543.324 -383356.87 225.829529  -383582.7 661900.195 -278317.49 7.52765095
 212000      .212  299096.517  -370423.4 171.294989 -370594.69 669519.913 -298925.22 5.70983298
  % % % % % %   Suspended simulation;  plot data space exhausted;  SPY SPACE is required.   LIMBUF =  340000.
  % % % % % %   Suspended simulation;  plot data space exhausted;  SPY SPACE is required.   LIMBUF =  340000.
  +++  Time-sharing disabled.   Send  user-keyed interrupt to silence alarm.
   Current values.  INDBUF  INDBEG  LIMBUF  MFLUSH  NUMDCD  KCARD1  KCARD2
                    339994      50  340000    1004      46       1      50
Plot timespan now in memory (in sec) = 1.69967994E-01   2.12461000E-01
   ++++  Begin plot-data copy from memory to disk.   MFLUSH, INDBUF, N4, Tbeg,  Tend = 1005  339994       1  -1.00000E+00
1.00000E+19
 212500     .2125  314570.912 -351377.34 124.313215 -351501.65 665948.253  -314446.6 4.14377384
 213000      .213  324276.383 -326202.74 83.5679118  -326286.3  650479.12 -324192.81 2.78559706
 213500     .2135  327936.297 -295208.67 43.9824074 -295252.65 623144.964 -327892.31 1.46608025
 214000      .214    325730.7 -259084.05 3.28084614 -259087.33 584814.746 -325727.42 .109361538
 214500     .2145  318002.312 -218665.64 -37.240378  -218628.4 536667.949 -318039.55 -1.2413459
 215000      .215  305127.389  -174836.8 -74.286199 -174762.51 479964.187 -305201.68 -2.4762066
 215500     .2155  287363.109 -128397.95 -102.82966 -128295.12 415761.062 -287465.94 -3.4276553
 216000      .216  264703.998 -79907.537 -119.95717 -79787.579 344611.535 -264823.96 -3.9985724
 216500     .2165  237189.738 -29891.196  -128.6967 -29762.499 267080.934 -237318.44 -4.2898901
 217000      .217  205292.529 20841.8769 -134.08961 20975.9665 184450.652 -205426.62 -4.4696535
 217500     .2175  169829.538 71249.2953 -137.81821 71387.1135 98580.2422 -169967.36 -4.5939402
 218000      .218   131684.77 120276.137  -138.6204 120414.758 11408.6326 -131823.39 -4.6206799
 218500     .2185  91698.9345 166937.678 -133.54333 167071.222 -75238.744 -91832.478 -4.4514442
 219000      .219  50503.8409 210463.153 -118.68914 210581.842 -159959.31  -50622.53 -3.9563047
 219500     .2195  8467.30737 250378.999 -93.303981 250472.302 -241911.69 -8560.6113 -3.1101327
 220000       .22  -33960.283 286250.998 -61.868323 286312.867 -320211.28 33898.4143 -2.0622774
 220500     .2205  -75972.326 317446.438 -29.248745 317475.687 -393418.76 75943.0775 -.97495818
 221000      .221  -116582.72 343252.396 3.26599898  343249.13 -459835.11 116585.984 .108866633
 221500     .2215  -154865.33    363060. 36.7930606 363023.207 -517925.33 154902.128 1.22643535
 222000      .222  -190048.83 376429.163 73.8952813 376355.267   -566478. 190122.728 2.46317604
 222500     .2225  -221669.86 383221.412 117.293819 383104.119 -604891.27 221787.155 3.90979398
 223000      .223  -249531.99 383595.384 165.955915 383429.429 -633127.37 249697.945 5.53186384
 223500     .2235  -273349.54   377722.7 214.724553 377507.975 -651072.24 273564.267 7.15748509
 224000      .224  -292583.33 365627.017 259.443353 365367.573 -658210.34 292842.771 8.64811176
 224500     .2245  -306661.02 347335.041  299.48252 347035.558 -653996.06 306960.498 9.98275067
 225000      .225  -315163.38 323012.506 336.183614 322676.322 -638175.89 315499.564 11.2061205
 225500     .2255  -317903.18 293014.009 372.079703 292641.929 -610917.19 318275.259 12.4026568
 226000      .226  -315040.22 257985.303 409.106807 257576.196 -573025.52 315449.326 13.6368936
 226500     .2265  -306949.21 218776.327 445.238026 218331.089 -525725.53 307394.444 14.8412675
 227000      .227   -293879.9 176157.686 475.623972 175682.062 -470037.58  294355.52 15.8541324
 227500     .2275  -275890.05 130734.329 497.448158 130236.881 -406624.37 276387.494 16.5816053
 228000      .228  -253072.61 83105.6517 511.136522 82594.5152 -336178.26  253583.75 17.0378841
 228500     .2285  -225687.05 33957.5914 518.703662 33438.8878 -259644.64 226205.755 17.2901221
 229000      .229  -194223.67 -15893.888 523.013149 -16416.902 -178329.78 194746.682 17.4337716
 229500     .2295  -159464.99 -65438.732 525.616732 -65964.348 -94026.254 159990.602 17.5205577
 230000       .23  -122283.12 -113620.33 524.218031 -114144.54 -8662.7936 122807.338 17.4739344
 230500     .2305  -83342.676 -159588.16  514.98256 -160103.14 76245.4799 83857.6581 17.1660853
 231000      .231  -43118.056 -202710.84 496.720823 -203207.56 159592.784 43614.7767 16.5573608
 231500     .2315  -2106.2244 -242417.83 471.010264 -242888.84 240311.602 2577.23469 15.7003421
 232000      .232  39085.6304 -278135.43 440.628894 -278576.06 317221.061 -38645.001 14.6876298
 232500     .2325  79684.9379 -309239.34 408.737696 -309648.08 388924.279   -79276.2 13.6245899
 233000      .233    118747.7 -335026.73 376.542315 -335403.27 453774.426 -118371.16 12.5514105
 233500     .2335  155399.336 -354894.35 341.760716 -355236.11 510293.689 -155057.57 11.3920239
 234000      .234  189064.072 -368534.04 301.697362 -368835.73 557598.108 -188762.37 10.0565787
 234500     .2345  219375.674 -375877.37 256.511085 -376133.88 595253.041 -219119.16 8.55036951
 235000      .235  245986.716 -376943.72 208.537323 -377152.26 622930.434 -245778.18 6.95124412
 235500     .2355  268506.595 -371787.72 160.905223 -371948.62 640294.312 -268345.69 5.36350744
 236000      .236  286450.211 -360443.08 116.574673 -360559.66 646893.293 -286333.64 3.88582244
 236500     .2365  299279.135 -342926.54 76.0493443 -343002.59 642205.676 -299203.09 2.53497814
 237000      .237  306646.524 -319419.95 36.9029037 -319456.85 626066.471 -306609.62 1.23009679
 237500     .2375   308542.06 -290394.94 -2.7926838 -290392.15 598937.002 -308544.85 -.09308946
 238000      .238  305146.334 -256503.54 -42.206968 -256461.33 561649.872 -305188.54 -1.4068989
 238500     .2385  296663.911 -218438.37 -78.931295 -218359.44 515102.281 -296742.84 -2.6310432
 239000      .239   283272.12 -176883.24 -110.15384 -176773.09 460155.359 -283382.27 -3.6717947
 239500     .2395  265074.118 -132454.53 -133.77867 -132320.75 397528.645  -265207.9  -4.459289
 240000       .24  242177.409 -85736.178 -150.43575 -85585.742 327913.587 -242327.84  -5.014525
 240500     .2405  214916.772 -37450.079 -162.95966 -37287.119 252366.851 -215079.73 -5.4319886
 241000      .241  183912.803 11487.1196 -172.97797 11660.0976 172425.683 -184085.78 -5.7659325
 241500     .2415  149892.041 60103.6756 -179.62869 60283.3043  89788.365 -150071.67 -5.9876229
 242000      .242  113547.058 107490.117 -180.98047 107671.098 6056.94069 -113728.04 -6.0326823
 242500     .2425   75490.914   152843.3 -175.02579 153018.326 -77352.386  -75665.94 -5.8341931
 243000      .243  36223.6291 195512.269 -160.91892 195673.188 -159288.64 -36384.548 -5.3639641
 243500     .2435  -3758.5137 234929.596 -140.52254 235070.119 -238688.11 3617.99111 -4.6840848
 244000      .244  -43775.347 270458.359 -117.05681 270575.416 -314233.71   43658.29 -3.9018936
 244500     .2445  -82977.272 301388.063 -92.008372 301480.072 -384365.34 82885.2638 -3.0669457
 245000      .245  -120532.46 327077.376 -64.708924 327142.085 -447609.84 120467.754 -2.1569641
 245500     .2455  -155733.55 347038.881 -33.796501 347072.678 -502772.43 155699.754   -1.12655
 246000      .246  -188033.17 360970.138 1.91966151 360968.219 -549003.31 188035.094 .063988717
 246500     .2465  -217050.59 368771.207 42.1728044 368729.034 -585821.79 217092.758 1.40576015
 247000      .247  -242435.84  370442.33 84.2765956 370358.053 -612878.17 242520.118 2.80921985
 247500     .2475    -263721.   365950.6 125.068707 365825.532  -629671.6 263846.066 4.16895691
 248000      .248  -280385.39 355261.087 163.460372 355097.627 -635646.48 280548.852 5.44867905
 248500     .2485  -292025.32 338461.938 200.164585 338261.774 -630487.25 292225.481 6.67215283
 249000      .249  -298422.74 315813.296 236.320582 315576.976 -614236.03 298659.056 7.87735275
 249500     .2495   -299563.6 287760.859 272.698624  287488.16 -587324.46 299836.298 9.08995414
 250000       .25  -295607.73 254918.265 308.455623  254609.81 -550525.99 295916.181 10.2818541
 250500     .2505  -286733.77 217939.938 340.803427 217599.134 -504673.71 287074.575 11.3601142
 251000      .251  -273029.95 177413.265 367.276159 177045.989 -450443.21 273397.222 12.2425386
 251500     .2515  -254588.94 133913.325 387.609141 133525.716 -388502.26 254976.547 12.9203047
 252000      .252   -231645.1  88102.682 402.964155 87699.7178 -319747.78 232048.062 13.4321385
 252500     .2525  -204607.53 40751.9217 414.704056 40337.2176 -245359.46 205022.239 13.8234685
 253000      .253  -174058.39 -7261.0424 423.623538 -7684.6659 -166797.35 174482.015 14.1207846
 253500     .2535  -140686.69 -54998.098 428.845614 -55426.943 -85688.593 141115.536 14.2948538
 254000      .254  -105128.33 -101594.75  428.09524 -102022.85 -3533.5749 105556.421 14.2698413
 254500     .2545  -67899.419 -146332.08 420.030292 -146752.11 78432.6571 68319.4495 14.0010097
  % % % % % %   Suspended simulation;  plot data space exhausted;  SPY SPACE is required.   LIMBUF =  340000.
  % % % % % %   Suspended simulation;  plot data space exhausted;  SPY SPACE is required.   LIMBUF =  340000.
  +++  Time-sharing disabled.   Send  user-keyed interrupt to silence alarm.
   Current values.  INDBUF  INDBEG  LIMBUF  MFLUSH  NUMDCD  KCARD1  KCARD2
                    339994      50  340000    1005      46       1      50
Plot timespan now in memory (in sec) = 2.12459996E-01   2.54953000E-01
   ++++  Begin plot-data copy from memory to disk.   MFLUSH, INDBUF, N4, Tbeg,  Tend = 1006  339994       1  -1.00000E+00
1.00000E+19
 255000      .255  -29507.244 -188562.43 405.412141 -188967.84 159055.185 29912.6559  13.513738
 255500     .2555  9446.92784  -227630.8 386.018574 -228016.82 237077.728 -9060.9093 12.8672858
 256000      .256   48259.619 -262867.94 363.589532 -263231.53 311127.561 -47896.029 12.1196511
 256500     .2565   86142.621 -293596.78 339.068359 -293935.84 379739.396 -85803.553 11.3022786
 257000      .257  122313.675 -319195.41 311.735367 -319507.14  441509.08 -122001.94 10.3911789
 257500     .2575  156141.856 -339216.43 280.005233 -339496.43 495358.282 -155861.85 9.33350778
 258000      .258  187166.644 -353413.71 243.601902 -353657.32 540580.358 -186923.04 8.12006339
 258500     .2585  214977.462 -361650.19 204.064318 -361854.26 576627.654  -214773.4 6.80214393
 259000      .259  239137.672 -363832.15 163.519981 -363995.67 602969.824 -238974.15 5.45066603
 259500     .2595  259187.023 -359902.66 123.798403 -360026.46 619089.682 -259063.22 4.12661343
 260000       .26  274667.157 -349847.03 85.6980078 -349932.73 624514.189 -274581.46 2.85660026
 260500     .2605  285220.692 -333759.01 48.4367755 -333807.45 618979.706 -285172.25 1.61455918
 261000      .261  290703.951 -311930.67 10.8519392 -311941.53 602634.626  -290693.1 .361731307
 261500     .2615  291157.204 -284833.32 -26.743143 -284806.58 575990.522 -291183.95 -.89143808
 262000      .262  286679.414 -253013.44 -62.614538 -252950.83 539692.855 -286742.03 -2.0871513
 262500     .2625  277370.461  -217036.3 -94.832818 -216941.46 494406.757 -277465.29 -3.1610939
 263000      .263  263334.227 -177475.18 -122.00717 -177353.18  440809.41 -263456.23 -4.0669058
 263500     .2635  244707.436 -134917.12 -143.95494 -134773.17 379624.561 -244851.39 -4.7984979
 264000      .264  221754.625 -90027.064 -161.88499 -89865.179 311781.689 -221916.51 -5.3961663
 264500     .2645  194939.208 -43605.357 -176.94153 -43428.415 238544.565 -195116.15 -5.8980511
 265000      .265  164852.534 3466.20677 -188.76641 3654.97318 161386.327  -165041.3 -6.2922137
 265500     .2655  132092.324 50327.1053 -195.98006 50523.0853 81765.2191  -132288.3 -6.5326687
 266000      .266  97219.9341 96181.4981  -197.3068 96378.8049 1038.43594 -97417.241 -6.5768934
 266500     .2665  60763.2678 140307.284 -192.17753 140499.461 -79544.016 -60955.445 -6.4059177
 267000      .267  23250.8481 182041.843 -181.28904 182223.132 -158790.99 -23432.137  -6.042968
 267500     .2675  -14701.857 220717.488 -166.41488 220883.903 -235419.35 14535.4426 -5.5471627
 268000      .268  -52360.464 255629.434 -148.84841 255778.282  -307989.9 52211.6158 -4.9616135
 268500     .2685  -88967.166  286106.24 -128.43029  286234.67 -375073.41  88838.736 -4.2810096
 269000      .269    -123846. 311595.352 -104.31366 311699.666 -435441.35 123741.685 -3.4771219
 269500     .2695  -156427.63 331686.363 -75.935959 331762.299 -488113.99  156351.69 -2.5311986
 270000       .27  -186239.84  346108.57 -43.513371 346152.083 -532348.41 186196.326 -1.4504457
 270500     .2705  -212862.07 354699.145 -8.4479416 354707.593 -567561.21 212853.621 -.28159805
 271000      .271  -235846.43 357334.825 27.1958491 357307.629 -593181.25 235873.625 .906528303
 271500     .2715  -254714.84 353916.151 62.1983732 353853.953   -608631. 254777.043 2.07327911
 272000      .272  -269059.44 344437.481   96.69267 344340.788 -613496.92 269156.136   3.223089
 272500     .2725  -278619.86 329045.006 131.242749 328913.763 -607664.87 278751.105 4.37475829
 273000      .273  -283286.15 308036.842 166.040563 307870.801 -591322.99 283452.187 5.53468542
 273500     .2735  -283075.15 281843.747 200.499384 281643.248  -564918.9 283275.653 6.68331281
 274000      .274  -278069.66 250977.952 233.028091 250744.924 -529047.61 278302.687 7.76760303
 274500     .2745  -268345.99 215963.557 261.814396 215701.743 -484309.55 268607.805 8.72714652
 275000      .275  -253990.43 177333.121 286.153544 177046.967 -431323.55 254276.581 9.53845148
 275500     .2755  -235189.95 135689.332 306.531163 135382.801 -370879.28 235496.482 10.2177054
 276000      .276  -212277.32 91736.0468  323.65027 91412.3965 -304013.36 212600.965 10.7883423
 276500     .2765   -185713.2 46260.8583 337.787933 45923.0704 -231974.06 186050.987 11.2595978
 277000      .277  -156047.14 102.749534 348.464682 -245.71515 -156149.89 156395.603 11.6154894
 277500     .2775  -123844.85 -45910.102 354.414795 -46264.517 -77934.747 124199.264 11.8138265
 278000      .278  -89627.028 -91021.112 354.534536 -91375.646 1394.08375 89981.5627 11.8178179
 278500     .2785  -53900.783 -134533.26 348.939395  -134882.2  80632.478  54249.722 11.6313132
 279000      .279  -17235.898 -175753.99 338.693489 -176092.68 158518.092  17574.591  11.289783
 279500     .2795  19716.7508 -213981.18 324.867501 -214306.04 233697.928 -19391.883 10.8289167
 280000       .28  56255.6741 -248526.06 308.036364 -248834.09 304781.732 -55947.638 10.2678788
 280500     .2805  91676.8042 -278748.42 288.025995 -279036.44 370425.223 -91388.778  9.6008665
 281000      .281  125346.785 -304115.81 264.080469  -304379.9   429462.6  -125082.7  8.8026823
 281500     .2815  156743.798 -324242.92 235.877388 -324478.79 480986.715 -156507.92  7.8625796
 282000      .282  185410.246 -338858.92  204.26493 -339063.19 524269.169 -185205.98 6.80883098
 282500     .2825  210888.047 -347753.59   170.7314 -347924.33 558641.642 -210717.32 5.69104666
 283000      .283   232715.31 -350768.41 136.555164 -350904.96 583483.717 -232578.76 4.55183882
 283500     .2835  250458.279 -347814.03 102.425889 -347916.46 598272.311 -250355.85  3.4141963
 284000      .284  263758.351 -338899.32 68.2817163  -338967.6 602657.669 -263690.07 2.27605721
 284500     .2845  272393.096  -324176.3 33.6608599 -324209.96 596569.397 -272359.44 1.12202866
 285000      .285  276288.589 -303951.07 -1.3045651 -303949.77 580239.662 -276289.89  -.0434855
 285500     .2855   275455.67 -278630.84 -35.477547 -278595.37 554086.513 -275491.15 -1.1825849
 286000      .286  269932.658 -248669.78 -67.404401 -248602.38 518602.438 -270000.06 -2.2468134
 286500     .2865  259787.021 -214559.66  -96.03226 -214463.63 474346.685 -259883.05 -3.2010753
 287000      .287   245141.34 -176839.12 -120.97717 -176718.14 421980.457 -245262.32 -4.0325724
 287500     .2875  226212.729 -136114.82 -142.57882 -135972.24 362327.552 -226355.31 -4.7526273
 288000      .288  203354.143 -93090.126  -161.3919 -92928.734 296444.269 -203515.54 -5.3797299
 288500     .2885  177037.477 -48550.834 -177.28774 -48373.546 225588.312 -177214.77 -5.9095912
 289000      .289  147778.521 -3300.9917   -189.342 -3111.6497 151079.513 -147967.86    -6.3114
 289500     .2895  116087.645 41885.3818 -196.58551 42081.9673 74202.2632 -116284.23 -6.5528503
 290000       .29  82473.4434 86270.8992 -198.56982  86469.469 -3797.4558 -82672.013  -6.618994
 290500     .2905  47463.2385 129147.605 -195.53518  129343.14 -81684.367 -47658.774 -6.5178395
 291000      .291  11635.5192 169817.233  -188.3451 170005.579 -158181.71 -11823.864 -6.2781699
 291500     .2915  -24357.184  207572.81 -177.86422 207750.674 -231929.99 24179.3197 -5.9288073
 292000      .292  -59826.147 241726.258 -164.21348 241890.471  -301552.4 59661.9331 -5.4737826
 292500     .2925  -94121.354 271669.368 -146.90917 271816.277 -365790.72 93974.4444 -4.8969723
 293000      .293  -126666.95 296906.235 -125.60046 297031.836 -423573.18 126541.345 -4.1866821
 293500     .2935   -156951.7 317049.413 -100.48447 317149.898 -474001.11 156851.217 -3.3494822
 294000      .294  -184507.28 331805.171 -72.385521 331877.556 -516312.45 184434.894 -2.4128507
 294500     .2945    -208877. 340947.193 -42.570706 340989.764 -549824.19  208834.43 -1.4190235
 295000      .295  -229604.39 344300.366  -12.07155 344312.437 -573904.75 229592.314 -.40238501
 295500     .2955  -246279.03 341769.565 18.8658469 341750.699  -588048.6 246297.898 .628861562
 296000      .296  -258598.55 333385.341 50.4465041 333334.895  -591983.9    258649. 1.68155014
 296500     .2965  -266383.64 319314.253  82.653525 319231.599 -585697.89 266466.291  2.7551175
 297000      .297  -269557.37 299840.145  114.96623 299725.179 -569397.52 269672.336 3.83220768
  % % % % % %   Suspended simulation;  plot data space exhausted;  SPY SPACE is required.   LIMBUF =  340000.
  % % % % % %   Suspended simulation;  plot data space exhausted;  SPY SPACE is required.   LIMBUF =  340000.
  +++  Time-sharing disabled.   Send  user-keyed interrupt to silence alarm.
   Current values.  INDBUF  INDBEG  LIMBUF  MFLUSH  NUMDCD  KCARD1  KCARD2
                    339994      50  340000    1006      46       1      50
Plot timespan now in memory (in sec) = 2.54952013E-01   2.97445000E-01
   ++++  Begin plot-data copy from memory to disk.   MFLUSH, INDBUF, N4, Tbeg,  Tend = 1007  339994       1  -1.00000E+00
1.00000E+19
 297500     .2975   -268115.6 275337.053 146.356454 275190.697 -543452.66  268261.96 4.87854847
 298000      .298  -262092.28 246234.049 175.576366 246058.473 -508326.33 262267.856 5.85254552
 298500     .2985   -251553.2 212998.723 201.829845 212796.893 -464551.92 251755.026 6.72766151
 299000      .299  -236639.67 176161.765 225.104975  175936.66 -412801.44 236864.779 7.50349915
 299500     .2995  -217610.13  136344.42 245.703177 136098.717 -353954.55 217855.832  8.1901059
 300000       0.3   -194833.7 94249.4523 263.659797 93985.7925 -289083.15 195097.356 8.78865988
 300500     .3005  -168757.96 50631.3841 278.570679 50352.8135 -219389.34 169036.528 9.28568929
 301000      .301  -139870.96 6261.21095 289.652178 5971.55877 -146132.17 140160.615 9.65507259
 301500     .3015  -108664.67 -38111.129 296.106555 -38407.235 -70553.545 108960.781 9.87021849
 302000      .302  -75633.616 -81768.257 297.728464 -82065.985 6134.64094 75931.3445 9.92428215
 302500     .3025  -41313.483 -124001.83 295.020138 -124296.85 82688.3514 41608.5027 9.83400459
 303000      .303  -6303.8927   -164097. 288.642843 -164385.64 157793.105  6592.5355 9.62142809
 303500     .3035   28752.709 -201350.13 278.945219 -201629.08 230102.841 -28473.764 9.29817395
 304000      .304  63208.5337 -235099.39 265.875443 -235365.26  298307.92 -62942.658 8.86251477
 304500     .3045  96450.0111 -264757.73 249.097519 -265006.82 361207.738 -96200.914 8.30325063
 305000      .305  127928.376 -289841.54 228.405157 -290069.94 417769.915 -127699.97 7.61350525
 305500     .3055  157151.128  -309968.4 204.220262 -310172.62 467119.532 -156946.91 6.80734206
 306000      .306   183645.03 -324828.02 177.513885 -325005.54 508473.055 -183467.52 5.91712949
 306500     .3065  206944.267 -334169.08 149.237199 -334318.32 541113.348 -206795.03 4.97457329
 307000      .307  226615.282  -337814.2 119.963362 -337934.16  564429.48 -226495.32 3.99877874
 307500     .3075  242290.015 -335681.49 89.8697876 -335771.36 577971.504 -242200.15 2.99565959
 308000      .308  253697.657 -327806.25 58.9080789 -327865.16  581503.91 -253638.75 1.96360263
 308500     .3085  260680.428 -314352.36 27.2385179  -314379.6 575032.787 -260653.19 .907950596
 309000      .309  263170.119 -295591.82 -4.4035198 -295587.41 558761.937 -263174.52 -.14678399
 309500     .3095  261148.698 -271867.55 -34.939515 -271832.61  533016.25 -261183.64 -1.1646505
 310000       .31  254639.677 -243577.89 -63.485997 -243514.41 498217.568 -254703.16 -2.1161999
 310500     .3105   243728.19 -211183.79 -89.598965 -211094.19 454911.979 -243817.79 -2.9866322
 311000      .311  228583.889   -175219. -113.23007 -175105.77 403802.888 -228697.12 -3.7743355
 311500     .3115  209479.496 -136299.01 -134.50461  -136164.5 345778.502   -209614. -4.4834869
 312000      .312  186788.342 -95115.689 -153.29262 -94962.397 281904.031 -186941.63 -5.1097539
 312500     .3125  160946.734 -52403.114 -168.98157 -52234.133 213349.849 -161115.72 -5.6327189
 313000      .313  132413.143 -8897.5587 -180.81125 -8716.7474 141310.702 -132593.95 -6.0270418
 313500     .3135  101660.903 34676.9771 -188.34171 34865.3188 66983.9255 -101849.24 -6.2780569
 314000      .314  69192.2881 77605.2661 -191.59027 77796.8564  -8412.978 -69383.878 -6.3863422
 314500     .3145  35552.3098 119175.903 -190.93249 119366.836 -83623.594 -35743.242 -6.3644165
 315000      .315  1336.08862 158678.461 -186.83455 158865.295 -157342.37 -1522.9232 -6.2278184
 315500     .3155  -32827.276 195416.984 -179.45587  195596.44 -228244.26 32647.8199 -5.9818624
 316000      .316  -66318.606 228746.601 -168.55672 228915.157 -295065.21 66150.0492 -5.6185573
 316500     .3165  -98563.956   258105.6 -153.88783 258259.488 -356669.56 98410.0684 -5.1295943
 317000      .317  -129036.31 283020.705 -135.56537  283156.27 -412057.01  128900.74 -4.5188457
 317500     .3175  -157242.13 303098.687 -114.11498 303212.802 -460340.81 157128.012 -3.8038326
 318000      .318  -182709.84 318017.269 -90.326362 318107.596 -500727.11  182619.51 -3.0108787
 318500     .3185  -204986.43  327519.42 -64.954975 327584.375 -532505.85 204921.477 -2.1651658
 319000      .319  -223658.02 331424.946 -38.382855 331463.328 -555082.97  223619.64 -1.2794285
 319500     .3195  -238389.05  329658.44 -10.650114  329669.09 -568047.49   238378.4  -.3550038
 320000       .32  -248943.72 322264.866 18.1401115 322246.725 -571208.58 248961.859 .604670382
 320500     .3205   -255176.4 309399.948  47.544996 309352.403 -564576.35 255223.944  1.5848332
 321000      .321  -257012.53 291311.464 76.8102335 291234.654   -548324. 257089.343 2.56034112
 321500     .3215  -254432.75 268321.063 105.048699 268216.014 -522753.81 254537.799  3.5016233
 322000      .322  -247467.36 240811.889 131.547034 240680.341 -488279.25 247598.907 4.38490112
 322500     .3225  -236213.79 209234.041 156.022661 209078.018 -445447.83 236369.812 5.20075536
 323000      .323  -220863.78  174120.06 178.484379 173941.576 -394983.84 221042.269 5.94947929
 323500     .3235  -201707.29 136083.646 198.841436 135884.805 -337790.94 201906.135 6.62804788
 324000      .324   -179110.5 95797.4942 216.718041 95580.7761 -274907.99 179327.214  7.2239347
 324500     .3245   -153489.7 53966.9114 231.531361   53735.38 -207456.61  153721.23 7.71771203
 325000      .325   -125290.4 11306.1677  242.68891 11063.4788 -136596.57 125533.093 8.08963032
 325500     .3255  -94979.475 -31476.038 249.878974 -31725.917 -63503.438 95229.3542 8.32929914
 326000      .326  -63058.503 -73673.237 253.229591 -73926.467 10614.7345 63311.7326 8.44098637
 326500     .3265  -30079.232 -114573.23 253.083445 -114826.31 84493.9958 30332.3152 8.43611482
 327000      .327  3366.04124 -153468.17 249.643069 -153717.81 156834.212 -3116.3982 8.32143564
 327500     .3275  36673.0828 -189679.79 242.864255 -189922.65 226352.868 -36430.219 8.09547516
 328000      .328  69253.4643 -222584.21 232.565654 -222816.78 291837.677 -69020.899 7.75218848
 328500     .3285  100554.637 -251631.59 218.633006 -251850.23  352186.23   -100336. 7.28776687
 329000      .329  130064.291 -276353.43 201.273435 -276554.71 406417.723 -129863.02 6.70911451
 329500     .3295  157296.214 -296353.29 181.073263 -296534.36 453649.501 -157115.14 6.03577545
 330000       .33  181780.383 -311297.67 158.716354 -311456.39 493078.055 -181621.67 5.29054512
[...]
Times of maxima :     .018313    .713656    .003357    .004526    .006394     .00263    .713915
             Random switching times for simulation number  296  :
                                   1  5.5801796E-02    2  5.4258744E-02    3  5.4176209E-02    4  1.0357663E-02    5  6.9853327E-01
                                   6  6.9869586E-01    7  6.9958808E-01

                   640724.632  -713317.6  -692327.9 .1106265E7 -946452.46 -.111178E7 2451.57555
Times of maxima :     .018104    .713913    .003357    .004526    .006394     .00263    .713807
             Random switching times for simulation number  297  :
                                   1  5.6055230E-02    2  5.4163897E-02    3  5.4929744E-02    4  9.5205641E-03    5  7.0046628E-01
                                   6  6.9931070E-01    7  6.9985771E-01

                   636655.559 -664898.94  -692327.9 .1106265E7 -946452.46 -.111178E7 2532.99522
Times of maxima :     .018089    .713914    .003357    .004526    .006394     .00263    .014547
             Random switching times for simulation number  298  :
                                   1  5.4402657E-02    2  5.4726493E-02    3  5.5809066E-02    4  1.1302849E-02    5  6.9999931E-01
                                   6  6.9999918E-01    7  7.0135056E-01

                   631156.104  -676946.5  -692327.9 .1106265E7 -946452.46 -.111178E7   2448.952
Times of maxima :      .01837    .713936    .003357    .004526    .006394     .00263    .713841
             Random switching times for simulation number  299  :
                                   1  5.4359107E-02    2  5.5309833E-02    3  5.5354775E-02    4  9.7516764E-03    5  7.0067447E-01
                                   6  7.0174165E-01    7  7.0054964E-01

                   638763.984 -677209.66  -692327.9 .1106265E7 -946452.46 -.111178E7 2408.81976
Times of maxima :     .018103    .713687    .003357    .004526    .006394     .00263    .713916
             Random switching times for simulation number  300  :
                                   1  5.6212631E-02    2  5.5400460E-02    3  5.4330646E-02    4  9.8967378E-03    5  7.0009595E-01
                                   6  7.0031249E-01    7  6.9985806E-01

                   639533.313  -672008.6  -692327.9 .1106265E7 -946452.46 -.111178E7 2441.65017
Times of maxima :      .01813    .713937    .003357    .004526    .006394     .00263    .713849

 MAIN20 dumps OVER12 dice seed  SEEDSV =   3.0444871000000000E+09

Statistical output of  node  voltage   0.4287E+06 |              X0003AX0003BX0003C

1 ) -------------------------------------------------------------------------------------------------------------------------------
Statistical distribution of peak voltage at node  "X0003A".   The base voltage for per unit printout is  V-base = 4.28660705E+05
  Interval             voltage         voltage  in     Frequency    Cumulative               Per cent
    number         in per unit      physical units     (density)     frequency     .GE. current value
        28           1.4000000      6.00124987E+05             0             0          100.000000
        29           1.4500000      6.21558022E+05             1             1           99.666667
        30           1.5000000      6.42991058E+05           273           274            8.666667
        31           1.5500000      6.64424093E+05            17           291            3.000000
        32           1.6000000      6.85857128E+05             7           298             .666667
        33           1.6500000      7.07290163E+05             2           300             .000000
Summary of preceding table follows:       Grouped data     Ungrouped data
                                 Mean = 1.48100000E+00     1.49084596E+00
                             Variance = 4.98996656E-04     4.20579640E-04
                   Standard deviation = 2.23382330E-02     2.05080384E-02

2 ) -------------------------------------------------------------------------------------------------------------------------------
Statistical distribution of peak voltage at node  "X0003B".   The base voltage for per unit printout is  V-base = 4.28660705E+05
  Interval             voltage         voltage  in     Frequency    Cumulative               Per cent
    number         in per unit      physical units     (density)     frequency     .GE. current value
        29           1.4500000      6.21558022E+05             0             0          100.000000
        30           1.5000000      6.42991058E+05             2             2           99.333333
        31           1.5500000      6.64424093E+05            72            74           75.333333
        32           1.6000000      6.85857128E+05           128           202           32.666667
        33           1.6500000      7.07290163E+05            73           275            8.333333
        34           1.7000000      7.28723199E+05            18           293            2.333333
        35           1.7500000      7.50156234E+05             2           295            1.666667
        36           1.8000000      7.71589269E+05             0           295            1.666667
        37           1.8500000      7.93022304E+05             0           295            1.666667
        38           1.9000000      8.14455340E+05             0           295            1.666667
        39           1.9500000      8.35888375E+05             4           299             .333333
        40           2.0000000      8.57321410E+05             0           299             .333333
        41           2.0500000      8.78754445E+05             1           300             .000000
Summary of preceding table follows:       Grouped data     Ungrouped data
                                 Mean = 1.58766667E+00     1.58727965E+00
                             Variance = 4.18684504E-03     4.10648028E-03
                   Standard deviation = 6.47058347E-02     6.40818249E-02

3 ) -------------------------------------------------------------------------------------------------------------------------------
  SUMMARY   SUMMARY   SUMMARY   SUMMARY   SUMMARY   SUMMARY   SUMMARY   SUMMARY   SUMMARY   SUMMARY   SUMMARY   SUMMARY   SUMMARY
3 ) -------------------------------------------------------------------------------------------------------------------------------
The following is a distribution of peak overvoltages among all output nodes of the last data card that have the same base voltage.
This distribution is for the maximum of the peaks at all output nodes with  V-base = 4.28660705E+05
  Interval             voltage         voltage  in     Frequency    Cumulative               Per cent
    number         in per unit      physical units     (density)     frequency     .GE. current value
        32           1.6000000      6.85857128E+05             0             0          100.000000
        33           1.6500000      7.07290163E+05           275           275            8.333333
        34           1.7000000      7.28723199E+05            18           293            2.333333
        35           1.7500000      7.50156234E+05             2           295            1.666667
        36           1.8000000      7.71589269E+05             0           295            1.666667
        37           1.8500000      7.93022304E+05             0           295            1.666667
        38           1.9000000      8.14455340E+05             0           295            1.666667
        39           1.9500000      8.35888375E+05             4           299             .333333
        40           2.0000000      8.57321410E+05             0           299             .333333
        41           2.0500000      8.78754445E+05             1           300             .000000
Summary of preceding table follows:       Grouped data     Ungrouped data
                                 Mean = 1.63400000E+00     1.62683421E+00
                             Variance = 1.87525084E-03     2.01931397E-03
                   Standard deviation = 4.33041665E-02     4.49367774E-02

Statistical output of branch voltage   0.4287E+06 |-1            X0003BX0003CX0003AX0003BX0003CX0003A

4 ) -------------------------------------------------------------------------------------------------------------------------------
Statistical distribution of peak voltage  for branch  "X0003A"  to  "X0003B".   Base voltage  for per unit output = 4.28660705E+05
  Interval             voltage         voltage  in     Frequency    Cumulative               Per cent
    number         in per unit      physical units     (density)     frequency     .GE. current value
        44           2.2000000      9.43053551E+05             0             0          100.000000
        45           2.2500000      9.64486586E+05           290           290            3.333333
        46           2.3000000      9.85919622E+05             0           290            3.333333
        47           2.3500000      1.00735266E+06             0           290            3.333333
        48           2.4000000      1.02878569E+06             0           290            3.333333
        49           2.4500000      1.05021873E+06             0           290            3.333333
        50           2.5000000      1.07165176E+06             0           290            3.333333
        51           2.5500000      1.09308480E+06             4           294            2.000000
        52           2.6000000      1.11451783E+06             4           298             .666667
        53           2.6500000      1.13595087E+06             2           300             .000000
Summary of preceding table follows:       Grouped data     Ungrouped data
                                 Mean = 2.23633333E+00     2.21984686E+00
                             Variance = 3.78416945E-03     4.19879108E-03
                   Standard deviation = 6.15156033E-02     6.47980793E-02

5 ) -------------------------------------------------------------------------------------------------------------------------------
  SUMMARY   SUMMARY   SUMMARY   SUMMARY   SUMMARY   SUMMARY   SUMMARY   SUMMARY   SUMMARY   SUMMARY   SUMMARY   SUMMARY   SUMMARY
5 ) -------------------------------------------------------------------------------------------------------------------------------
A distribution of peak values among all output branches of the last data card that have the same base value follows.  This
statistical distribution is for the maximum of the peaks at all of these output branches having base  voltage  = 4.28660705E+05
  Interval             voltage         voltage  in     Frequency    Cumulative               Per cent
    number         in per unit      physical units     (density)     frequency     .GE. current value
        51           2.5500000      1.09308480E+06             0             0          100.000000
        52           2.6000000      1.11451783E+06           298           298             .666667
        53           2.6500000      1.13595087E+06             2           300             .000000
Summary of preceding table follows:       Grouped data     Ungrouped data
                                 Mean = 2.57533333E+00     2.59385739E+00
                             Variance = 1.66109253E-05     1.07419062E-05
                   Standard deviation = 4.07565029E-03     3.27748474E-03

Blank card ends statistical tabulation requests.  |BLANK STATISTICS

                                      Sample curve symbols : "A", "B", and "C"
                                      Theoretical curve symbol : "*"
                                      Common curve symbol : "X"

        Switch  "X0001B"  to  "X0002B"            Switch  "X0001A"  to  "X0002A"            Switch  "X0001C"  to  "X0002C"
1.32420000E+00   switchings per column          1.32420000E+00   switchings per column     1.32420000E+00   switchings per column
              Columns                                     Columns                                     Columns
          5   10   15   20   25   30                5   10   15   20   25   30                5   10   15   20   25   30
     +----+----+----+----+----+----+           +----+----+----+----+----+----+           +----+----+----+----+----+----+
    X                                         X                                         X
    X                                         X                                         X
    X                                         X                                         X
    *A                                        X                                         X
    |*A                                       B*                                        |*C
    |A*                                       | X                                       | X
    |   X                                     | B *                                     |   *  C
    |       X                                 |       X                                 |     C *
    |      A    *                             |           *B                            |       C   *
    |                 * A                     |                 *    B                  |                 *  C
    |                       *     A           |                       X                 |                       *    C
    |                      A    *             |                           *   B         |                    C      *
    |  5.5000E-02                 *     A     |  5.5000E-02              B  *           |  5.5000E-02                 *     C
    |                           *      A      |                         B *             |                         C *
    |                  A    *                 |                       * B               |                       *     C
    |               A *                       |                B*                       |            C    *
    |         A *                             |          B*                             |        C  *
    |       * A                               |       X                                 |       *  C
    |  A*                                     |   X                                     | C *
    | *A                                      | X                                       | X
    |X                                        |X                                        |*C
    X                                         *B                                        X
    X                                         X                                         X
    X                                         X                                         *C
    X                                         X                                         X
   Time (scale = 3.33333333E-04  Sec/line)   Time (scale = 3.33333333E-04  Sec/line)   Time  (scale = 3.33333333E-04  Sec/line)

        Switch  "X0003C"  to  "XX0009"            Switch  "X0001B"  to  "X0002B"            Switch  "X0001A"  to  "X0002A"
1.32420000E+00   switchings per column          1.32420000E+00   switchings per column     1.32420000E+00   switchings per column
              Columns                                     Columns                                     Columns
          5   10   15   20   25   30                5   10   15   20   25   30                5   10   15   20   25   30
     +----+----+----+----+----+----+           +----+----+----+----+----+----+           +----+----+----+----+----+----+
    X                                         X                                         X
    X                                         X                                         X
    X                                         X                                         X
    *A                                        X                                         * C
    |X                                        |X                                        |*C
    | *A                                      | X                                       | X
    |  A*                                     |  B*                                     |   X
    |      A*                                 |    B  *                                 |     C *
    |         A *                             |           *  B                          |          C*
    |                 * A                     |                B*                       |                 X
    |                       *     A           |                       *    B            |                       X
    |                           *    A        |                           *B            |                           * C
    |  1.0000E-02                 *A          |  7.0000E-01                 *   B       |  7.0000E-01                C*
    |                           *   A         |                           *  B          |                           *  C
    |                A      *                 |                   B   *                 |                    C  *
    |                 * A                     |            B    *                       |                 X
    |           X                             |         B *                             |           * C
    |     A *                                 |     B *                                 |       X
    A   *                                     |   *  B                                  |   *C
    A *                                       | X                                       C *
    A*                                        |*B                                       |*C
    *A                                        *B                                        X
    X                                         X                                         X
    X                                         *B                                        X
    X                                         X                                         X
   Time (scale = 3.33333333E-04  Sec/line)   Time (scale = 3.33333333E-04  Sec/line)   Time  (scale = 3.33333333E-04  Sec/line)

   Switch  "X0001C"  to  "X0002C"
     1.32420000E+00   switchings per column
              Columns
          5   10   15   20   25   30
     +----+----+----+----+----+----+
    X
    X
    *A
    X
    |X
    |A*
    | A *
    |       X
    |           *    A
    |          A      *
    |                       *    A
    |                         A *
    |  7.0000E-01                A*
    |                          A*
    |                       X
    |                 *  A
    |           *       A
    |    A  *
    |   X
    A *
    A*
    *A
    X
    *A
    X
   Time (scale = 3.33333333E-04  Sec/line)
 .... Questionable Kolmogorov-Smirnov test result = 4.79983461E-01
 .... Questionable Kolmogorov-Smirnov test result = 8.61125218E-01
 .... Questionable Kolmogorov-Smirnov test result = 6.22920778E-01
 .... Questionable Kolmogorov-Smirnov test result = 8.70941508E-02
 .... Questionable Kolmogorov-Smirnov test result = 7.08509700E-01
 .... Questionable Kolmogorov-Smirnov test result = 9.61921384E-01
 .... Questionable Kolmogorov-Smirnov test result = 7.92096056E-01

Actual List Sizes for the preceding solution follow.       11-Nov-18  11.00.00
   Size  1-10:    27    26    38     3   138    13    42  5310     0     0
   Size 11-20:     0     7 -9999 -9999 -9999     0     0     0    23  2972
   Size 21-30:    36   180 14779     0 -9999     9 -9999 -9999 -9999     0
Seconds for overlays  1-5  :     0.000     0.000     0.000  -- (CP: Wait; Real)
Seconds for overlays  6-11 :     0.000     0.000     0.000
Seconds for overlays 12-15 :     0.000     0.000     0.000
Seconds for time-step loop :     0.000     0.000     0.000
Seconds after DELTAT-loop  :     0.000     0.000     0.000
                               ---------------------------
                   Totals  :     0.000     0.000     0.000

