   ---   55   cards of disk file read into card cache cells  1   onward.
 <===> Done with  "/"-card sorting by data class.    Remember that the source file appears different from interpreted input data.
Alternative Transients Program (ATP),  F77 GNU Linux or DOS.  All rights reserved by Can/Am user group of Portland, Oregon, USA.
 Date (dd-mth-yy) and time of day (hh.mm.ss) = 11-Nov-18  11.00.00    Name of disk plot file, if any, is
Consult the 860-page ATP Rule Book of the Can/Am EMTP User Group in Portland,  Oregon, USA.  Source code date is
Total size of LABCOM tables = 16446853 INTEGER words.  31 VARDIM  List Sizes follow:  6002  10K  192K  900  420K  1200  15K
  120K  2250  3800  720  2K  72800  510  800K  800  90  254  800K  100K  3K  15K  192K  120  45K  260K  600  210K  1100  19  200K
--------------------------------------------------+--------------------------------------------------------------------------------
Descriptive interpretation of input data cards.   |  Input data card images are shown below, all 80 columns, character by character
                                                  0         1         2         3         4         5         6         7         8
                                                  012345678901234567890123456789012345678901234567890123456789012345678901234567890
--------------------------------------------------+--------------------------------------------------------------------------------
Comment card.   KOMPAR > 0.                       |C data:Caso0_ReEnergizacao_OTIMIZADA_SemControle.atp
Marker card preceding new EMTP data case.         |BEGIN NEW DATA CASE
Comment card.   KOMPAR > 0.                       |C $DUMMY, XYZ000
Misc. data.     1.000E-06   1.000E+00   0.000E+00 |   1.E-6      1.
Misc. data.  500  1  0  0  1  0  0  1  300  0     |     500       1       0       0       1       0       0       1     300
Statistics data.      1    1    0    0    1    0  |       1       1       0       0       1      -1                               0
Series R-L-C.   5.000E+00  7.500E-02  0.000E+00   |  X0001AX0007A                5.   75.                                         0
Series R-L-C.   5.000E+00  7.500E-02  0.000E+00   |  X0001BX0007B                5.   75.                                         0
Series R-L-C.   5.000E+00  7.500E-02  0.000E+00   |  X0001CX0007C                5.   75.                                         0
Series R-L-C.   2.000E+02  0.000E+00  0.000E+00   |  X0007AX0001A              200.                                               0
Series R-L-C.   2.000E+02  0.000E+00  0.000E+00   |  X0007BX0001B              200.                                               0
Series R-L-C.   2.000E+02  0.000E+00  0.000E+00   |  X0007CX0001C              200.                                               0
Series R-L-C.   1.321E+00  1.401E+00  0.000E+00   |  X0003BXX0008            1.32071401.3                                         0
Series R-L-C.   1.321E+00  1.401E+00  0.000E+00   |  X0003AXX0008            1.32071401.3                                         0
Series R-L-C.   1.321E+00  1.401E+00  0.000E+00   |  X0003CXX0008            1.32071401.3                                         0
Series R-L-C.   3.900E-01  4.138E-01  0.000E+00   |  XX0008                     .39 413.8                                         0
Series R-L-C.   3.000E+01  0.000E+00  0.000E+00   |  XX0009                     30.                                               0
Series R-L-C.   2.000E+02  0.000E+00  0.000E+00   |  X0002AX0010A              200.                                               0
Series R-L-C.   2.000E+02  0.000E+00  0.000E+00   |  X0002BX0010B              200.                                               0
Series R-L-C.   2.000E+02  0.000E+00  0.000E+00   |  X0002CX0010C              200.                                               0
Dynamic $INCLUDE uses fixed RAM cache to delay.   |$INSERT, C:\SimulacaoATP\1\EXT1.pch
J. Marti line, mode  1   parameters begin.        |-1X0010AX0005C                2.  0.00              -2 3
J. Marti line, mode  2   parameters begin.        |-2X0010BX0005A                2.  0.00              -2 3
J. Marti line, mode  3   parameters begin.        |-3X0010CX0005B                2.  0.00              -2 3
TR(1,1 )...  0.671-0.707-0.324                    |  0.67102882 -0.70710678 -0.32400803
TI(1,1 )...  0.000 0.000 0.003                    |  0.00000000  0.00000000  0.00341127
TR(2,1 )...  0.315 0.000 0.889                    |  0.31480489  0.00000000  0.88876566
TI(2,1 )... -0.018 0.000 0.010                    | -0.01839933  0.00000000  0.01048452
TR(3,1 )...  0.671 0.707-0.324                    |  0.67102882  0.70710678 -0.32400803
TI(3,1 )...  0.000 0.000 0.003                    |  0.00000000  0.00000000  0.00341127
Dynamic $INCLUDE uses fixed RAM cache to delay.   |$INSERT, C:\SimulacaoATP\1\OTIM2.pch
J. Marti line, mode  1   parameters begin.        |-1X0004AX0006C                2.  0.00              -2 3
J. Marti line, mode  2   parameters begin.        |-2X0004BX0006A                2.  0.00              -2 3
J. Marti line, mode  3   parameters begin.        |-3X0004CX0006B                2.  0.00              -2 3
TR(1,1 )...  0.671-0.707-0.324                    |  0.67102882 -0.70710678 -0.32400803
TI(1,1 )...  0.000 0.000 0.003                    |  0.00000000  0.00000000  0.00341127
TR(2,1 )...  0.315 0.000 0.889                    |  0.31480489  0.00000000  0.88876566
TI(2,1 )... -0.018 0.000 0.010                    | -0.01839933  0.00000000  0.01048452
TR(3,1 )...  0.671 0.707-0.324                    |  0.67102882  0.70710678 -0.32400803
TI(3,1 )...  0.000 0.000 0.003                    |  0.00000000  0.00000000  0.00341127
Dynamic $INCLUDE uses fixed RAM cache to delay.   |$INSERT, C:\SimulacaoATP\1\OTIM3.pch
J. Marti line, mode  1   parameters begin.        |-1X0005AX0004C                2.  0.00              -2 3
J. Marti line, mode  2   parameters begin.        |-2X0005BX0004A                2.  0.00              -2 3
J. Marti line, mode  3   parameters begin.        |-3X0005CX0004B                2.  0.00              -2 3
TR(1,1 )...  0.671-0.707-0.324                    |  0.67102882 -0.70710678 -0.32400803
TI(1,1 )...  0.000 0.000 0.003                    |  0.00000000  0.00000000  0.00341127
TR(2,1 )...  0.315 0.000 0.889                    |  0.31480489  0.00000000  0.88876566
TI(2,1 )... -0.018 0.000 0.010                    | -0.01839933  0.00000000  0.01048452
TR(3,1 )...  0.671 0.707-0.324                    |  0.67102882  0.70710678 -0.32400803
TI(3,1 )...  0.000 0.000 0.003                    |  0.00000000  0.00000000  0.00341127
Dynamic $INCLUDE uses fixed RAM cache to delay.   |$INSERT, C:\SimulacaoATP\1\EXT4.pch
J. Marti line, mode  1   parameters begin.        |-1X0006AX0003A                2.  0.00              -2 3
J. Marti line, mode  2   parameters begin.        |-2X0006BX0003B                2.  0.00              -2 3
J. Marti line, mode  3   parameters begin.        |-3X0006CX0003C                2.  0.00              -2 3
TR(1,1 )...  0.671-0.707-0.324                    |  0.67102882 -0.70710678 -0.32400803
TI(1,1 )...  0.000 0.000 0.003                    |  0.00000000  0.00000000  0.00341127
TR(2,1 )...  0.315 0.000 0.889                    |  0.31480489  0.00000000  0.88876566
TI(2,1 )... -0.018 0.000 0.010                    | -0.01839933  0.00000000  0.01048452
TR(3,1 )...  0.671 0.707-0.324                    |  0.67102882  0.70710678 -0.32400803
TI(3,1 )...  0.000 0.000 0.003                    |  0.00000000  0.00000000  0.00341127
Blank card ending branches.  IBR, NTOT = 26  27   |BLANK BRANCH
Switch.   5.50E-02  1.00E-03  0.00E+00  3.33E+03  |  X0001BX0002B      .055      .001               3333.STATISTICS               0
Switch.   5.50E-02  1.00E-03  0.00E+00  3.33E+03  |  X0001AX0002A      .055      .001               3333.STATISTICS               0
Switch.   5.50E-02  1.00E-03  0.00E+00  3.33E+03  |  X0001CX0002C      .055      .001               3333.STATISTICS               0
Switch.   1.00E-02  1.00E-03  0.00E+00  0.00E+00  |  X0003CXX0009       .01      .001                    STATISTICS               1
Switch.   7.00E-01  1.00E-03  0.00E+00  0.00E+00  |  X0001BX0002B        .7      .001                    STATISTICS               0
Switch.   7.00E-01  1.00E-03  0.00E+00  0.00E+00  |  X0001AX0002A        .7      .001                    STATISTICS               0
Switch.   7.00E-01  1.00E-03  0.00E+00  0.00E+00  |  X0001CX0002C        .7      .001                    STATISTICS               0
Switch.   0.00E+00  6.98E-01  0.00E+00  0.00E+00  |  X0002AX0010A                .698                                             0
Switch.   0.00E+00  6.98E-01  0.00E+00  0.00E+00  |  X0002BX0010B                .698                                             0
Switch.   0.00E+00  6.98E-01  0.00E+00  0.00E+00  |  X0002CX0010C                .698                                             0
Switch.   7.10E-01  0.00E+00  0.00E+00  0.00E+00  |  X0002AX0010A       .71                                                       0
Switch.   7.10E-01  0.00E+00  0.00E+00  0.00E+00  |  X0002BX0010B       .71                                                       0
Switch.   7.10E-01  0.00E+00  0.00E+00  0.00E+00  |  X0002CX0010C       .71                                                       0
Blank card ending switches.   KSWTCH = 13.        |BLANK SWITCH
Source.   4.29E+05  6.00E+01  0.00E+00 -1.00E+00  |14X0007A  428660.705       60.                                     -1.      100.
Source.   4.29E+05  6.00E+01 -1.20E+02 -1.00E+00  |14X0007B  428660.705       60.     -120.                           -1.      100.
Source.   4.29E+05  6.00E+01 -2.40E+02 -1.00E+00  |14X0007C  428660.705       60.     -240.                           -1.      100.
Blank card ends electric sources.  KCONST = 3     |BLANK SOURCE

     Total network loss  P-loss  by summing injections =   1.914664199662E+08

Card of names for time-step loop output.          |  X0003AX0003BX0003C
Output voltage differences for pairs of A6 names  |-5X0003BX0003CX0003AX0003BX0003CX0003A
Blank card ending requests for output variables.  |BLANK OUTPUT

Column headings for the  7   EMTP output variables follow.  These are divided among the 5 possible classes as follows ....
  First  6     output variables are electric-network voltage differences (upper voltage minus lower voltage);
  Next   1     output variables are branch currents (flowing from the upper node to the lower node);
   Step      Time      X0003A     X0003B     X0003C     X0003B     X0003A     X0003C     X0003C
                                                        X0003C     X0003B     X0003A     XX0009
 ***      Phasor I(0) =  4.8473519E+02                     Switch  "X0001B"  to  "X0002B"  closed in the steady-state.
 ***      Phasor I(0) =  2.9963042E+02                     Switch  "X0001A"  to  "X0002A"  closed in the steady-state.
 ***      Phasor I(0) = -7.8513536E+02                     Switch  "X0001C"  to  "X0002C"  closed in the steady-state.
 ***                    Switch  "X0002A"  to  "X0010A"  closed  after  0.00000000E+00  sec.
 ***                    Switch  "X0002B"  to  "X0010B"  closed  after  0.00000000E+00  sec.
 ***                    Switch  "X0002C"  to  "X0010C"  closed  after  0.00000000E+00  sec.
      0       0.0  388487.756  -331443.9  -52283.42 -279160.48 719931.661 -440771.18        0.0
    500     .5E-3  409993.159 -276960.36 -128359.62 -148600.74 686953.516 -538352.78        0.0
   1000     .1E-2  418992.364 -213322.35 -199915.95 -13406.403 632314.716 -618908.31        0.0
   1500     .0015  412516.689 -141891.43 -264394.97 122503.536  554408.12 -676911.66        0.0
   2000      .002  432710.548 45217.2583 -516022.23 561239.484  387493.29 -948732.77        0.0
   2500     .0025   381553.86 192542.737 -573669.52  766212.26 189011.123 -955223.38        0.0
   3000      .003  299833.525 302397.646 -599818.32  902215.97 -2564.1215 -899651.85        0.0
   3500     .0035  198544.675 386424.593  -585461.3 971885.889 -187879.92 -784005.97        0.0
   4000      .004  92215.6694 460297.597 -535688.36 995985.954 -368081.93 -627904.03        0.0
   4500     .0045   -14469.88 514926.503 -473464.21 988390.709 -529396.38 -458994.33        0.0
   5000      .005  -127346.66 545618.876 -397131.92   942750.8 -672965.54 -269785.26        0.0
   5500     .0055  -256905.35 524785.062 -256936.73 781721.791 -781690.42  -31.37526        0.0
   6000      .006  -355198.08 469316.948 -102847.06 572164.006 -824515.03 252351.026        0.0
   6500     .0065  -421139.47  406814.82 28270.4017 378544.418 -827954.29 449409.876        0.0
   7000      .007  -463411.12 341156.438 132255.335 208901.103 -804567.56 595666.454        0.0
   7500     .0075  -482570.07 274116.963 207887.057 66229.9054 -756687.03 690457.128        0.0
   8000      .008  -483128.26 201873.476 267296.223 -65422.747 -685001.74 750424.487        0.0
   8500     .0085  -468854.17    125142. 316484.758 -191342.76 -593996.17 785338.929        0.0
   9000      .009  -427776.54  52916.858 344013.375 -291096.52  -480693.4 771789.913        0.0
   9500     .0095  -371196.41 -3768.7758  345375.13 -349143.91 -367427.64 716571.543        0.0
  10000       .01  -313249.72 -53663.915 339534.161 -393198.08  -259585.8 652783.877        0.0
 ***                                                             Close switch  "X0003C"  to  "XX0009"  after  1.00010000E-02  sec.
  10500     .0105   -355004.1 -203853.37 34495.8878 -238349.26 -151150.73 389499.985 1149.86293
  11000      .011  -297259.61 -262663.68 36279.8549 -298943.53 -34595.936 333539.467  1209.3285
  11500     .0115  -236469.27 -324874.36 38690.2561 -363564.62 88405.0917 275159.526  1289.6752
  12000      .012  -177876.41 -391916.26 42724.1873 -434640.45 214039.846 220600.599 1424.13958
  12500     .0125  -110077.25 -438640.49 44827.7806 -483468.27 328563.237 154905.033 1494.25935
  13000      .013  -29129.284 -478378.76 45100.0814 -523478.84 449249.471 74229.3655 1503.33605
  13500     .0135  14171.4756 -516696.05 44945.8525 -561641.91 530867.529 30774.3768 1498.19508
  14000      .014  17311.3174 -617587.99 54838.8464 -672426.83 634899.305 37527.5291 1827.96155
  14500     .0145  140773.618 -586540.69 64172.8537 -650713.54 727314.307 -76600.764 2139.09512
  15000      .015   263687.34  -516133.6 68242.2165 -584375.82 779820.939 -195445.12 2274.74055
  15500     .0155  359530.953 -436998.19 64450.7478 -501448.93  796529.14 -295080.21 2148.35826
  16000      .016  441810.522 -346734.94  56735.788 -403470.72 788545.458 -385074.73 1891.19293
  16500     .0165  513543.826 -238122.52 47005.8878 -285128.41 751666.348 -466537.94 1566.86293
  17000      .017  573184.947 -111784.85 34563.0696 -146347.92 684969.795 -538621.88 1152.10232
  17500     .0175  612570.105  23994.155 19879.6196 4114.53535  588575.95 -592690.49 662.653988
  18000      .018  614759.624 159807.683 8609.33211 151198.351 454951.941 -606150.29 286.977737
  18500     .0185  590109.115 287760.068 2706.67286 285053.395 302349.047 -587402.44 90.2224287
  19000      .019  537848.897 392548.699 -4048.1523 396596.851 145300.198 -541897.05 -134.93841
  19500     .0195  463463.395 476520.142 -12242.854 488762.996 -13056.747 -475706.25 -408.09514
  20000       .02  367637.801 537700.141 -21152.967 558853.108 -170062.34 -388790.77  -705.0989
  20500     .0205   256773.68  575093.11 -29975.971 605069.081 -318319.43 -286749.65 -999.19905
  21000      .021  137896.699 589809.155 -38524.393 628333.548 -451912.46 -176421.09 -1284.1464
  21500     .0215  13504.5014 577420.352 -46562.505 623982.857 -563915.85 -60067.006 -1552.0835
  22000      .022  -114647.23 535568.047 -52314.319 587882.366 -650215.27 62332.9073 -1743.8106
  22500     .0225  -231879.64 479366.541 -54808.227 534174.768 -711246.18 177071.414 -1826.9409
  23000      .023  -329558.18 419525.983 -54111.403 473637.386 -749084.16 275446.774 -1803.7134
  23500     .0235  -407832.69 355246.031 -51132.058 406378.089 -763078.72 356700.634 -1704.4019
  24000      .024  -468149.16 284307.437 -46478.763   330786.2  -752456.6 421670.396 -1549.2921
  24500     .0245  -510413.63 206874.939 -40391.213 247266.153 -717288.57 470022.416 -1346.3738
  25000      .025  -533476.47 125607.753 -33233.353 158841.106 -659084.23 500243.122 -1107.7784
  25500     .0255  -538368.99 42435.6402 -25461.245 67896.8852 -580804.63 512907.749 -848.70817
  26000      .026  -527624.96 -42636.804 -16858.698 -25778.106 -484988.16 510766.265 -561.95661
  26500     .0265  -502611.44 -129650.76 -6952.9111 -122697.85 -372960.68 495658.524  -231.7637
  27000      .027  -464584.22 -218045.41 3998.19909 -222043.61 -246538.81 468582.418 133.273303
  27500     .0275  -414105.66  -304940.6 15268.7396 -320209.34 -109165.06 429374.398 508.957986
  28000      .028  -351690.59 -386205.07 26163.0158 -412368.09 34514.4828 377853.604 872.100527
  28500     .0285  -278190.65  -457448.6 36149.0035 -493597.61 179257.954 314339.652 1204.96678
  29000      .029  -194479.32 -514520.44 44743.2185 -559263.65 320041.119 239222.536 1491.44062
  29500     .0295  -102587.14 -554358.13 51484.9741  -605843.1 451770.991 154072.112  1716.1658
  30000       .03   -5805.939 -574817.02 56158.7205 -630975.74 569011.081 61964.6595 1871.95735
  30500     .0305  93082.0844 -573356.46 58805.6147 -632162.08 666438.545  -34276.47 1960.18716
  31000      .031   191854.21 -547618.32 59562.2002 -607180.52  739472.53 -132292.01 1985.40667
  31500     .0315  287506.439 -497202.17 58514.3456 -555716.52 784708.613 -228992.09 1950.47819
  32000      .032  375977.091 -424256.79 55687.4276 -479944.21 800233.877 -320289.66 1856.24759
  32500     .0325  452894.282 -332673.21 51125.1448 -383798.35 785567.491 -401769.14 1704.17149
  33000      .033  514443.849 -227064.54 44902.2144 -271966.75 741508.387 -469541.64 1496.74048
  33500     .0335   557586.33  -112496.9  37118.467 -149615.37 670083.234 -520467.86 1237.28223
  34000      .034  579959.216 5496.54795 27985.1927 -22488.645 574462.668 -551974.02 932.839756
  34500     .0345  579976.998 121224.797  17873.468 103351.329 458752.201 -562103.53 595.782267
  35000      .035  557079.168 229336.643  7229.5201 222107.123 327742.525 -549849.65 240.984003
  35500     .0355  512001.217  325412.32 -3524.1323 328936.452 186588.898 -515525.35 -117.47108
  36000      .036  446769.438 406276.073 -14010.433 420286.506 40493.3652 -460779.87 -467.01444
  36500     .0365  364457.789 469929.381 -23880.324 493809.705 -105471.59 -388338.11  -796.0108
  37000      .037  268888.283 515345.401 -32815.394 548160.795 -246457.12 -301703.68 -1093.8465
  37500     .0375  164242.619 542187.085 -40547.819 582734.904 -377944.47 -204790.44  -1351.594
  38000      .038  54762.8535 550589.007  -46853.55 597442.557 -495826.15  -101616.4  -1561.785
  38500     .0385  -55308.843 541148.041 -51528.635 592676.676 -596456.88 3780.20783 -1717.6212
  39000      .039  -161779.55 514935.862 -54384.453 569320.315 -676715.41 107395.095 -1812.8151
  39500     .0395  -260729.12   473320.7 -55271.327 528592.027 -734049.82 205457.789 -1842.3776
  40000       .04  -348788.11 417723.608 -54110.383 471833.991 -766511.72 294677.729 -1803.6794
  40500     .0405  -423262.88 349547.828 -50910.969 400458.797 -772810.71 372351.913 -1697.0323
  41000      .041  -482077.08 270315.584 -45776.119 316091.703 -752392.67 436300.965 -1525.8706
  41500     .0415  -523694.53 181843.265 -38901.613 220744.879  -705537.8 484792.921 -1296.7204
  42000      .042  -547123.84 86328.8561 -30560.494  116889.35  -633452.7 516563.349 -1018.6831
  % % % % % %   Suspended simulation;  plot data space exhausted;  SPY SPACE is required.   LIMBUF =  340000.
  % % % % % %   Suspended simulation;  plot data space exhausted;  SPY SPACE is required.   LIMBUF =  340000.
  +++  Time-sharing disabled.   Send  user-keyed interrupt to silence alarm.
   Current values.  INDBUF  INDBEG  LIMBUF  MFLUSH  NUMDCD  KCARD1  KCARD2
                    339994      50  340000    1000      46       1      50
Plot timespan now in memory (in sec) = 0.00000000E+00   4.24930000E-02
   ++++  Begin plot-data copy from memory to disk.   MFLUSH, INDBUF, N4, Tbeg,  Tend = 1001  339994       1  -1.00000E+00
1.00000E+19
  42500     .0425  -551948.97 -13642.463 -21075.831 7433.36792  -538306.5 530873.135 -702.52769
  43000      .043  -538313.03 -115116.47 -10798.596 -104317.87 -423196.56 527514.429 -359.95319
  43500     .0435  -506847.51 -214781.92 -97.631545 -214684.28 -292065.59 506749.878 -3.2543848
  44000      .044  -458600.82 -309018.21 10647.1366 -319665.34 -149582.62 469247.961 354.904552
  44500     .0445  -395013.37 -394034.89 21055.8753 -415090.77   -978.475 416069.242  701.86251
  45000      .045  -317930.61 -466104.49 30761.5759 -496866.07 148173.879 348692.189 1025.38586
  45500     .0455  -229626.27  -521850.4 39419.9164 -561270.31 292224.126 269046.189 1313.99721
  46000      .046  -132805.77 -558526.68 46718.9781 -605245.66 425720.912 179524.748 1557.29927
  46500     .0465  -30563.558 -574227.46 52392.6297 -626620.09 543663.905 82956.1881 1746.42099
  47000      .047  73705.2721 -568008.81 56235.6041 -624244.42 641714.086 -17469.668 1874.52014
  47500     .0475     176413. -539947.69 58114.6657 -598062.36 716360.691 -118298.33 1937.15552
  48000      .048  273891.542 -491153.89 57972.6848 -549126.58 765045.432 -215918.86 1932.42283
  48500     .0485  362521.533 -423717.22 55827.0462 -479544.26  786238.75 -306694.49 1860.90154
  49000      .049  438891.802 -340568.62 51764.8222 -392333.44 779460.418 -387126.98 1725.49407
  49500     .0495  499974.787 -245270.19 45935.9784 -291206.17 745244.975 -454038.81 1531.19928
  50000       .05  543287.422 -141778.76 38546.0906 -180324.85 685066.182 -504741.33 1284.86969
  50500     .0505  567017.697 -34222.045 29849.9066 -64071.952 601239.742 -537167.79 994.996888
  51000      .051  570114.966 73298.0207 20145.2002 53152.8205 496816.946 -549969.77 671.506672
  51500     .0515  552348.392 176876.158 9765.13848 167111.019 375472.234 -542583.25 325.504616
  52000      .052  514330.911 272947.449 -931.62142 273879.071 241383.462 -515262.53 -31.054047
  52500     .0525  457500.064 358393.922 -11572.471 369966.393 99106.1413 -469072.53 -385.74903
  53000      .053  384051.479  430605.68 -21783.414 452389.094 -46554.202 -405834.89 -726.11379
  53500     .0535  296829.374 487499.727  -31202.62 518702.347 -190670.35 -328031.99 -1040.0873
  54000      .054  199185.048 527511.571  -39494.51 567006.081 -328326.52 -238679.56 -1316.4837
  54500     .0545  94817.9431  549579.33 -46363.034 595942.364 -454761.39 -141180.98 -1545.4345
  55000      .055  -12387.319 553134.629 -51562.792 604697.421 -565521.95 -39175.474 -1718.7597
  55500     .0555   -118519.5 538103.654 -54907.535 593011.188 -656623.15 63611.9639 -1830.2512
  56000      .056  -219790.18 504914.258  -56276.38 561190.638 -724704.44 163513.804 -1875.8793
 ***                                                             Open  switch  "X0001B"  to  "X0002B"  after  5.61490000E-02  sec.
  56500     .0565  -312668.92  454504.98 -55618.064 510123.044  -767173.9 257050.857 -1853.9355
  57000      .057  -393997.47 388333.925 -52953.181 441287.106  -782331.4  341044.29  -1765.106
  57500     .0575  -461078.96 308383.062 -48374.158  356757.22 -769462.02 412704.802 -1612.4719
  58000      .058  -516717.89 230059.352 -42516.784 272576.136 -746777.24 474201.106 -1417.2261
  58500     .0585  -556147.29 176541.328 -35908.651 212449.979 -732688.62 520238.641  -1196.955
  59000      .059  -568111.96 127572.444 -26859.313 154431.757  -695684.4 541252.643 -895.31042
 ***                                                             Open  switch  "X0001A"  to  "X0002A"  after  5.94060000E-02  sec.
  59500     .0595  -561070.51 71558.4489 -16855.688 88414.1366 -632628.96 544214.822 -561.85626
 ***                                                             Open  switch  "X0001C"  to  "X0002C"  after  5.99640000E-02  sec.
  60000       .06  -536893.15 8236.81733 -6244.1231 14480.9404 -545129.97 530649.028 -208.13744
  60500     .0605  -494382.06 -60505.431 4583.63241 -65089.063 -433876.63 498965.696 152.787747
  61000      .061  -433869.12  -133052.7 15295.5727 -148348.27 -300816.42 449164.696 509.852422
  61500     .0615  -400790.65  -193102.7 26755.9476 -219858.65 -207687.95 427546.598 891.864921
  62000      .062    -339739. -211291.42 31208.2305 -242499.65 -128447.59 370947.235 1040.27435
  62500     .0625  -277937.26 -239803.99 28056.7112  -267860.7 -38133.267 305993.972 935.223708
  63000      .063   -212912.9 -278986.69  23098.772 -302085.46 66073.7884 236011.674 769.959067
  63500     .0635  -136780.74  -319434.8 17377.3656 -336812.17 182654.064 154158.105 579.245522
  64000      .064  -48187.958 -356115.36 10620.5349 -366735.89 307927.397 58808.4932 354.017829
  64500     .0645  42846.6971 -394893.73 3389.42965 -398283.16 437740.427 -39457.267 112.980988
  65000      .065  99306.6944 -408306.85 -3595.4797 -404711.37 507613.542 -102902.17 -119.84932
  65500     .0655  150082.175 -415801.82 -10543.244 -405258.58 565883.999 -160625.42 -351.44146
  66000      .066  177674.754 -445007.58 -13945.593 -431061.98  622682.33 -191620.35 -464.85311
  66500     .0665  233720.754 -453149.23 -13440.345 -439708.88  686869.98  -247161.1 -448.01151
  67000      .067  296438.335 -453394.69  -11631.83 -441762.86 749833.024 -308070.17 -387.72767
  67500     .0675  358301.148 -450619.38 -8985.9331 -441633.44 808920.525 -367287.08  -299.5311
  68000      .068  410353.837 -442901.55 -4912.8139 -437988.74 853255.391 -415266.65 -163.76046
  68500     .0685  430859.514 -405152.13 -18.742119 -405133.39 836011.641 -430878.26 -.62473728
  69000      .069  442642.102 -363231.15 5154.05428 -368385.21 805873.253 -437488.05 171.801809
  69500     .0695  460745.685 -316925.47 9785.95355 -326711.42 777671.156 -450959.73 326.198452
  70000       .07  487064.177 -264308.86 11027.8243 -275336.68 751373.037 -476036.35 367.594145
  70500     .0705  503008.366 -216399.59 10611.8945 -227011.48 719407.951 -492396.47 353.729818
  71000      .071  512764.644 -169518.94 9919.49744 -179438.44 682283.582 -502845.15 330.649915
  71500     .0715   509486.51  -112434.9 8660.37496 -121095.27 621921.406 -500826.14 288.679165
  72000      .072  479500.553   -36697.8 6262.56867 -42960.369 516198.353 -473237.98 208.752289
  72500     .0725  439374.696  34303.746 3190.01979 31113.7262  405070.95 -436184.68 106.333993
  73000      .073  404367.674 97771.3363 -350.64774 98121.9841 306596.338 -404718.32 -11.688258
  73500     .0735  356953.482 143681.657 -3147.3608 146829.018 213271.824 -360100.84 -104.91203
  74000      .074  310625.384 186547.747 -4446.9582 190994.706 124077.637 -315072.34 -148.23194
  74500     .0745   266208.66 227371.971   -4662.37  232034.34 38836.6895 -270871.03 -155.41233
  75000      .075  205631.078  275589.15 -4422.5503   280011.7 -69958.072 -210053.63 -147.41834
  75500     .0755  127955.094 327444.275 -3653.6164 331097.892 -199489.18 -131608.71 -121.78721
  76000      .076  51800.2952 370579.611 -2195.9741 372775.585 -318779.32 -53996.269 -73.199136
  76500     .0765  -14083.141 400673.547 -230.60765 400904.154 -414756.69 13852.5337 -7.6869216
  77000      .077  -76490.245 418076.831 2256.04835 415820.782 -494567.08 78746.2936 75.2016118
  77500     .0775  -127788.21 430929.356 3929.65983 426999.696 -558717.56 131717.869 130.988661
  78000      .078  -177431.49 433106.093 4793.16492 428312.928 -610537.58 182224.654 159.772164
  78500     .0785  -241694.31 440858.439 5393.43904 435464.999 -682552.75 247087.746 179.781301
  79000      .079  -305790.74 447533.308  5642.7909 441890.517 -753324.04 311433.526  188.09303
  79500     .0795   -356673.3 444068.434 5203.12348 438865.311 -800741.74 361876.426 173.437449
  80000       .08   -394349.7 425209.072 4319.31617 420889.756 -819558.77 398669.013 143.977206
  80500     .0805  -420905.53 395068.374 3138.90883 391929.465  -815973.9 424044.437 104.630294
  81000      .081  -440560.03 353683.931 1815.98525 351867.946 -794243.96 442376.015 60.5328416
  81500     .0815  -455879.74 304456.914 999.394504 303457.519 -760336.66 456879.138 33.3131501
  82000      .082  -478377.49 265571.917 536.030375 265035.887 -743949.41  478913.52 17.8676792
  82500     .0825  -491900.42 225888.527 16.2995704 225872.227 -717788.94 491916.716 .543319015
  83000      .083  -490314.56 176400.317 -372.81571 176773.133 -666714.87 489941.742  -12.42719
  83500     .0835  -474598.68 117627.258 -230.90714 117858.165 -592225.94 474367.777 -7.6969045
  84000      .084  -446471.42 54523.2178 301.803845 54221.4139 -500994.63 446773.221 10.0601282
  84500     .0845  -411471.98 -12187.962 1234.61283 -13422.575 -399284.01 412706.588  41.153761
  % % % % % %   Suspended simulation;  plot data space exhausted;  SPY SPACE is required.   LIMBUF =  340000.
  % % % % % %   Suspended simulation;  plot data space exhausted;  SPY SPACE is required.   LIMBUF =  340000.
  +++  Time-sharing disabled.   Send  user-keyed interrupt to silence alarm.
   Current values.  INDBUF  INDBEG  LIMBUF  MFLUSH  NUMDCD  KCARD1  KCARD2
                    339994      50  340000    1001      46       1      50
Plot timespan now in memory (in sec) = 4.24919985E-02   8.49850000E-02
   ++++  Begin plot-data copy from memory to disk.   MFLUSH, INDBUF, N4, Tbeg,  Tend = 1002  339994       1  -1.00000E+00
1.00000E+19
  85000      .085  -371614.58  -74597.27  2242.1106 -76839.381 -297017.31 373856.687 74.7370202
  85500     .0855  -339192.19 -123533.28 2827.02867 -126360.31 -215658.92 342019.221 94.2342891
  86000      .086   -299983.7 -170583.56 3036.78516 -173620.34 -129400.14 303020.488 101.226172
  86500     .0865  -247471.38 -220427.75 3231.89821 -223659.65  -27043.63  250703.28  107.72994
  87000      .087  -184325.21 -269733.21 3338.23235 -273071.45 85408.0061  187663.44 111.274412
  87500     .0875  -115743.99 -316556.94 3184.13068 -319741.07 200812.944 118928.124 106.137689
  88000      .088  -46098.604 -359883.59 2922.11468 -362805.71  313784.99 49020.7188 97.4038226
  88500     .0885  16681.6968 -392166.32 2494.30616 -394660.63 408848.018 -14187.391 83.1435388
  89000      .089  67822.7342 -410483.91 1949.87526 -412433.78 478306.642 -65872.859 64.9958421
  89500     .0895  120836.269 -423507.99 1356.20922  -424864.2 544344.259 -119480.06 45.2069739
  90000       .09  180759.508 -434153.41 820.752845 -434974.17 614912.921 -179938.76 27.3584282
  90500     .0905  241595.883  -440803.7 372.626856 -441176.32  682399.58 -241223.26 12.4208952
  91000      .091  298671.787 -442002.04 128.627728 -442130.66 740673.824 -298543.16 4.28759095
  91500     .0915  349992.658 -436307.27 188.944616 -436496.22  786299.93 -349803.71 6.29815386
  92000      .092  384817.724 -416406.04 436.775497 -416842.81 801223.763 -384380.95 14.5591832
  92500     .0925  407632.802 -383981.58 671.749027 -384653.33 791614.383 -406961.05 22.3916342
  93000      .093  428218.762 -348004.59 749.720036 -348754.31 776223.353 -427469.04 24.9906679
  93500     .0935   448800.12 -311247.79 785.456974 -312033.24 760047.905 -448014.66 26.1818991
  94000      .094  464483.879 -272013.92 916.807906 -272930.73 736497.797 -463567.07 30.5602635
  94500     .0945  473004.628 -228261.03 1107.49021 -229368.52 701265.658 -471897.14 36.9163403
  95000      .095  472320.093 -180081.43  1288.1888 -181369.62 652401.527  -471031.9 42.9396265
  95500     .0955  452420.525 -121195.71 1365.97645 -122561.68 573616.231 -451054.55 45.5325482
  96000      .096  422692.501 -57790.243 1211.00436 -59001.248 480482.744  -421481.5 40.3668118
  96500     .0965   390945.62 1773.30122 929.889504 843.411714 389172.319 -390015.73 30.9963168
  97000      .097   358434.28 56646.8862 700.350829 55946.5354 301787.394 -357733.93 23.3450276
  97500     .0975  322316.347  108934.69 543.282663 108391.408 213381.657 -321773.06 18.1094221
  98000      .098   280739.43 159647.329 418.332964 159228.996   121092.1  -280321.1 13.9444321
  98500     .0985  231362.841 208947.097 393.280959 208553.816 22415.7432 -230969.56 13.1093653
  99000      .099  168445.761 262104.969 424.740727 261680.228 -93659.208 -168021.02 14.1580242
  99500     .0995  102928.062 311110.118 410.006251 310700.112 -208182.06 -102518.06  13.666875
 100000       0.1   42085.618 349944.497 438.816815  349505.68 -307858.88 -41646.801 14.6272272
 100500     .1005   -14537.81 379216.463 546.927779 378669.535 -393754.27 15084.7379  18.230926
 101000      .101  -69297.708 401057.894 683.290119 400374.604  -470355.6 69980.9977 22.7763373
 101500     .1015   -123645.2 416377.891 880.789774 415497.101 -540023.09 124525.991 29.3596591
 102000      .102   -179990.2 427878.091 1153.98468 426724.107 -607868.29 181144.188  38.466156
 102500     .1025  -239971.65  438618.66 1353.45479 437265.205 -678590.31 241325.102 45.1151595
 103000      .103  -293903.03 440677.047 1403.35049 439273.696 -734580.08 295306.384 46.7783496
 103500     .1035  -336234.72 430475.159 1408.47843 429066.681 -766709.88 337643.201 46.9492811
 104000      .104  -369417.07 409910.158 1429.36414 408480.794 -779327.23 370846.436 47.6454713
 104500     .1045  -395776.25 381933.183 1454.42482 380478.758 -777709.43 397230.672 48.4808273
 105000      .105  -416470.48 348074.912 1517.74849 346557.163  -764545.4 417988.232 50.5916163
 105500     .1055  -435428.34 312952.386 1570.63132 311381.755 -748380.73 436998.972 52.3543775
 106000      .106  -451426.54 276961.949 1524.72037 275437.229 -728388.49 452951.256 50.8240123
 106500     .1065  -456594.12 233860.913 1413.13149 232447.782 -690455.03  458007.25  47.104383
 107000      .107  -448040.67 182416.345 1344.39102 181071.954 -630457.01 449385.059 44.8130339
 107500     .1075   -429576.4 125660.254 1354.01246 124306.241 -555236.65 430930.409 45.1337488
 108000      .108  -404116.26 66970.7192 1398.12145 65572.5978 -471086.98  405514.38 46.6040484
 108500     .1085  -373355.79 8078.78013 1479.45697 6599.32317 -381434.57 374835.247 49.3152322
 109000      .109  -342579.42 -45841.407 1543.33026 -47384.737 -296738.01 344122.746 51.4443421
 109500     .1095  -308250.94 -96367.119 1529.94437 -97897.063 -211883.82 309780.883 50.9981458
 110000       .11  -264384.62 -148188.24 1466.94065 -149655.18 -116196.38 265851.559 48.8980217
 110500     .1105  -211147.65 -201239.05 1423.33853 -202662.39  -9908.602 212570.993 47.4446175
 111000      .111  -153068.82 -252325.53 1411.07645 -253736.61 99256.7092 154479.898 47.0358818
 111500     .1115  -93571.378 -298641.88 1402.15206 -300044.04 205070.505 94973.5303 46.7384019
 112000      .112  -34855.335 -338546.07 1405.06952 -339951.14 303690.736 36260.4047 46.8356508
 112500     .1125  18228.3409 -367788.15 1365.30635 -369153.46 386016.493 -16863.035 45.5102118
 113000      .113  70548.4663 -389773.88 1224.20741 -390998.09 460322.351 -69324.259 40.8069136
 113500     .1135  126367.749 -408605.09 1038.85687 -409643.95 534972.838 -125328.89 34.6285623
 114000      .114  183615.463 -423688.46 899.235882  -424587.7 607303.924 -182716.23 29.9745294
 114500     .1145  238119.392 -432378.23  812.83099 -433191.06 670497.619 -237306.56 27.0943663
 115000      .115   286912.72 -433073.74 764.753106 -433838.49 719986.456 -286147.97 25.4917702
 115500     .1155  327717.699 -424478.27 744.235272 -425222.51 752195.972 -326973.46 24.8078424
 116000      .116  357805.473 -404519.66 686.387554 -405206.05 762325.134 -357119.09 22.8795851
 116500     .1165   382738.19 -378128.37 553.663293 -378682.04 760866.563 -382184.53 18.4554431
 117000      .117  405907.386 -348989.12 426.863771 -349415.98 754896.506 -405480.52 14.2287924
 117500     .1175  424854.275 -316341.14  369.78193 -316710.92 741195.412 -424484.49 12.3260643
 118000      .118  436378.722 -278470.64 356.775877 -278827.41 714849.361 -436021.95 11.8925292
 118500     .1185  438736.429 -235104.11 376.216426 -235480.33 673840.542 -438360.21 12.5405475
 119000      .119  429968.544 -185251.88 404.493177 -185656.37 615220.421 -429564.05 13.4831059
 119500     .1195  410352.389 -129199.27 381.876386 -129581.14 539551.654 -409970.51 12.7292129
 120000       .12  385899.198 -72474.139 298.952231 -72773.092 458373.337 -385600.25 9.96507438
 120500     .1205  359467.827 -17996.437 232.073337  -18228.51 377464.264 -359235.75  7.7357779
 121000      .121  328854.588 35078.0897 218.966319 34859.1234 293776.498 -328635.62 7.29887729
 121500     .1215  291967.531  87871.978 237.736874 87634.2412 204095.553 -291729.79 7.92456245
 122000      .122  248446.655 140088.753 291.498134 139797.255 108357.902 -248155.16 9.71660446
 122500     .1225  196876.431 192807.727 349.706095 192458.021  4068.7036 -196526.72 11.6568698
 123000      .123  140141.131 244164.962 358.146686 243806.816 -104023.83 -139782.98 11.9382229
 123500     .1235  84142.8243  289154.15 329.569968  288824.58 -205011.33 -83813.254 10.9856656
 124000      .124  30814.3001 326174.783 331.689719 325843.094 -295360.48  -30482.61  11.056324
 124500     .1245  -21808.018  356601.33 386.864202 356214.466 -378409.35  22194.882 12.8954734
 125000      .125  -75038.168 381710.746 473.653471 381237.092 -456748.91  75511.822  15.788449
 125500     .1255  -128611.46 401552.734 585.957429 400966.777 -530164.19 129197.414 19.5319143
 126000      .126  -183565.28 417563.446 683.382784 416880.064 -601128.73 184248.667 22.7794261
 126500     .1265  -235759.03 427339.185  721.91036 426617.275 -663098.22 236480.945 24.0636787
 127000      .127  -280263.29 427270.591 733.187734 426537.403 -707533.88 280996.477 24.4395911
  % % % % % %   Suspended simulation;  plot data space exhausted;  SPY SPACE is required.   LIMBUF =  340000.
  % % % % % %   Suspended simulation;  plot data space exhausted;  SPY SPACE is required.   LIMBUF =  340000.
  +++  Time-sharing disabled.   Send  user-keyed interrupt to silence alarm.
   Current values.  INDBUF  INDBEG  LIMBUF  MFLUSH  NUMDCD  KCARD1  KCARD2
                    339994      50  340000    1002      46       1      50
Plot timespan now in memory (in sec) = 8.49839970E-02   1.27477000E-01
   ++++  Begin plot-data copy from memory to disk.   MFLUSH, INDBUF, N4, Tbeg,  Tend = 1003  339994       1  -1.00000E+00
1.00000E+19
 127500     .1275  -316659.12 417460.355 774.648121 416685.706 -734119.47 317433.763  25.821604
 128000      .128  -347124.64 400148.487 850.341012 399298.146 -747273.13 347974.984 28.3447004
 128500     .1285  -372917.96 377060.796 937.769702 376123.027 -749978.76  373855.73 31.2589901
 129000      .129  -394221.16 349089.187 1027.61785 348061.569 -743310.34 395248.775 34.2539283
 129500     .1295  -411863.45 317918.734 1084.43906 316834.295 -729782.19  412947.89 36.1479687
 130000       .13  -421803.78 281288.778 1082.04894 280206.729 -703092.55 422885.824 36.0682979
 130500     .1305  -420825.12 237198.555 1064.33783 236134.217 -658023.68 421889.459 35.4779276
 131000      .131  -410291.99 187199.025 1077.37845 186121.647 -597491.01 411369.364 35.9126149
 131500     .1315  -392970.62 134137.928 1112.15984 133025.768 -527108.55 394082.782 37.0719947
 132000      .132  -370464.21 79916.2529 1152.55982 78763.6931 -450380.47 371616.772 38.4186607
 132500     .1325  -343888.54 26113.6619 1187.01206 24926.6498  -370002.2 345075.548 39.5670688
 133000      .133  -313789.93 -25935.046 1181.16941 -27116.215 -287854.89 314971.103 39.3723135
 133500     .1335  -276934.15  -78365.67 1123.78432 -79489.454 -198568.48 278057.934 37.4594774
 134000      .134  -231970.07 -132059.47 1063.93458 -133123.41 -99910.596 233034.003 35.4644862
 134500     .1345  -181631.71 -184834.89 1035.83002 -185870.72 3203.17815 182667.539 34.5276672
 135000      .135  -129066.77 -233971.98 1022.24507 -234994.23 104905.212 130089.014 34.0748355
 135500     .1355  -75994.387 -278023.72 1011.30645 -279035.03 202029.338 77005.6931  33.710215
 136000      .136  -24135.941 -315455.97 986.148124 -316442.12 291320.031 25122.0894 32.8716041
 136500     .1365  26609.7422 -346069.36 916.015811 -346985.38 372679.107 -25693.726 30.5338604
 137000      .137  78816.9922 -372247.45 808.310693 -373055.76 451064.446 -78008.682 26.9436898
 137500     .1375  132533.308 -394477.36 714.031244 -395191.39  527010.67 -131819.28 23.8010415
 138000      .138  184610.387 -410844.61 654.831041 -411499.45 595455.001 -183955.56 21.8277014
 138500     .1385  232225.438 -419506.87 610.114467 -420116.98 651732.308 -231615.32 20.3371489
 139000      .139   274142.68 -419978.57 570.615973 -420549.18 694121.247 -273572.06 19.0205324
 139500     .1395  308918.629 -411493.67  517.31714 -412010.99   720412.3 -308401.31 17.2439047
 140000       .14    337786.2 -395351.99 426.864017 -395778.85 733138.188 -337359.34 14.2288006
 140500     .1405  363214.032 -374354.65 320.421937 -374675.07 737568.685 -362893.61 10.6807312
 141000      .141   384766.02  -349036.6 243.458872 -349280.06 733802.616 -384522.56 8.11529572
 141500     .1415  399820.194 -318191.79 204.282607 -318396.08 718011.987 -399615.91 6.80942025
 142000      .142  406590.944 -281098.53  182.35767 -281280.88 687689.471 -406408.59 6.07858899
 142500     .1425  404780.021 -238177.25  168.08288 -238345.34 642957.275 -404611.94 5.60276265
 143000      .143  394013.641 -189611.93   140.7484 -189752.68 583625.571 -393872.89 4.69161333
 143500     .1435  376791.914 -137864.82 83.9658085 -137948.79 514656.735 -376707.95 2.79886028
 144000      .144  355746.705 -85818.774 26.5234732 -85845.298 441565.479 -355720.18 .884115774
 144500     .1445  330465.308 -33927.949 5.98031478  -33933.93 364393.257 -330459.33 .199343826
 145000      .145  299256.991 18544.7527 19.9308092 18524.8219 280712.239 -299237.06 .664360305
 145500     .1455  261560.918 71612.4724 49.6510989 71562.8213 189948.446 -261511.27 1.65503663
 146000      .146  217912.731  124562.05 83.6679582 124478.383 93350.6802 -217829.06 2.78893194
 146500     .1465  169144.112 176674.918 101.176718 176573.741  -7530.806 -169042.93 3.37255726
 147000      .147  118546.475 225196.776 94.4642037 225102.312  -106650.3 -118452.01 3.14880679
 147500     .1475  68595.7526  267894.44 96.4949753 267797.945 -199298.69 -68499.258 3.21649918
 148000      .148  18828.9175 304917.931 135.384136 304782.547 -286089.01 -18693.533 4.51280454
 148500     .1485  -31809.608 337148.446 199.864609 336948.581 -368958.05 32009.4722 6.66215363
 149000      .149  -83136.748 364610.786   273.2224 364337.564 -447747.53 83409.9709 9.10741333
 149500     .1495  -134398.77 387043.383 342.489948 386700.893 -521442.15  134741.26 11.4163316
 150000       .15   -184101.1 403814.733 388.474006 403426.259 -587915.83  184489.57 12.9491335
 150500     .1505  -229059.48 412760.062 412.423671 412347.638 -641819.54 229471.907 13.7474557
 151000      .151   -267655.7 412920.348 447.446641 412472.902 -680576.05 268103.151  14.914888
 151500     .1515   -300865.9 405441.658 511.171282 404930.487 -706307.55 301377.068 17.0390427
 152000      .152  -329761.15  391770.22 587.146282 391183.074 -721531.37 330348.296 19.5715427
 152500     .1525  -354183.49 372431.335 661.501961 371769.833 -726614.83 354844.994 22.0500654
 153000      .153  -373829.37 347945.786 721.127556 347224.659 -721775.16 374550.499 24.0375852
 153500     .1535  -387290.91 318068.593 750.349172 317318.244  -705359.5 388041.259 25.0116391
 154000      .154  -392302.35 281586.929 759.160414 280827.768 -673889.28 393061.509 25.3053471
 154500     .1545  -388643.31 238863.643 778.807605 238084.835 -627506.95 389422.114 25.9602535
 155000      .155  -378129.45 191894.625 817.860747 191076.764 -570024.07 378947.311 27.2620249
 155500     .1555  -362260.25  142545.83 858.744269 141687.085 -504806.08 363118.991  28.624809
 156000      .156  -341387.36 91751.6307 890.266667  90861.364 -433138.99 342277.626 29.6755556
 156500     .1565  -315873.39 40481.1836 900.203565   39580.98 -356354.58 316773.597 30.0067855
 157000      .157  -284776.53 -11375.965 878.363867 -12254.329 -273400.57 285654.898 29.2787956
 157500     .1575  -246995.11  -64375.72 842.167278 -65217.888 -182619.39 247837.275 28.0722426
 158000      .158  -203631.57   -117414. 819.268406 -118233.27  -86217.57 204450.843 27.3089469
 158500     .1585  -157133.05 -168315.61 810.484419  -169126.1 11182.5596 157943.536 27.0161473
 159000      .159  -109252.75 -215432.36 799.308658 -216231.67 106179.613 110052.056 26.6436219
 159500     .1595   -60729.61 -257981.97 776.582151 -258758.55 197252.355 61506.1925 25.8860717
 160000       .16  -12183.858 -295294.95 731.833813 -296026.79 283111.094 12915.6917 24.3944604
 160500     .1605  37077.8073 -327907.31 661.401533 -328568.71 364985.114 -36416.406 22.0467178
 161000      .161  87387.4886 -356337.78 587.448905 -356925.23 443725.271  -86800.04 19.5816302
 161500     .1615   137002.29 -379548.97 532.418044 -380081.39 516551.258 -136469.87 17.7472681
 162000      .162  183531.869 -395952.97 490.982399 -396443.96 579484.844 -183040.89   16.36608
 162500     .1625  225594.764 -404770.45 448.849365  -405219.3 630365.213 -225145.91 14.9616455
 163000      .163   262640.26 -405920.55 398.317974 -406318.87 668560.812 -262241.94 13.2772658
 163500     .1635  294516.307 -399636.49 330.822548 -399967.31 694152.799 -294185.48 11.0274183
 164000      .164  322197.015 -387242.97 248.807601 -387491.77 709439.981 -321948.21 8.29358671
 164500     .1645   345899.38 -369622.09 176.037278 -369798.13 715521.469 -345723.34 5.86790928
 165000      .165  364076.404 -346279.85 128.439413 -346408.29  710356.25 -363947.96 4.28131376
 165500     .1655  375109.191 -316558.14 96.0299826 -316654.17 691667.329 -375013.16 3.20099942
 166000      .166  378559.163 -280707.34 66.4798991 -280773.82 659266.505 -378492.68 2.21599664
 166500     .1665  374588.744 -239426.96  32.604577 -239459.57 614015.708 -374556.14 1.08681923
 167000      .167  363998.778 -193868.35 -12.533981 -193855.81 557867.125 -364011.31 -.41779937
 167500     .1675   348354.43  -145947.3 -61.630052 -145885.67  494301.73 -348416.06 -2.0543351
 168000      .168  328137.059 -96752.722 -92.161692 -96660.561 424889.782 -328229.22 -3.0720564
 168500     .1685  302433.018 -46191.688 -95.541315 -46096.147 348624.706 -302528.56 -3.1847105
 169000      .169  270639.558 5750.96019 -84.944435 5835.90462 264888.598  -270724.5 -2.8314812
 169500     .1695  233306.727 58258.5459 -71.289719 58329.8357 175048.181 -233378.02  -2.376324
  % % % % % %   Suspended simulation;  plot data space exhausted;  SPY SPACE is required.   LIMBUF =  340000.
  % % % % % %   Suspended simulation;  plot data space exhausted;  SPY SPACE is required.   LIMBUF =  340000.
  +++  Time-sharing disabled.   Send  user-keyed interrupt to silence alarm.
   Current values.  INDBUF  INDBEG  LIMBUF  MFLUSH  NUMDCD  KCARD1  KCARD2
                    339994      50  340000    1003      46       1      50
Plot timespan now in memory (in sec) = 1.27476007E-01   1.69969000E-01
   ++++  Begin plot-data copy from memory to disk.   MFLUSH, INDBUF, N4, Tbeg,  Tend = 1004  339994       1  -1.00000E+00
1.00000E+19
 170000       .17  191342.551 110322.131 -61.634953 110383.766   81020.42 -191404.19 -2.0544984
 170500     .1705  146368.848 160447.063 -61.064488 160508.128 -14078.215 -146429.91 -2.0354829
 171000      .171  100297.706  206810.96 -58.803378 206869.763 -106513.25 -100356.51 -1.9601126
 171500     .1715  53698.4937 248704.798 -35.571956  248740.37  -195006.3 -53734.066 -1.1857319
 172000      .172  6098.35366 286388.054 10.1585497 286377.896  -280289.7 -6088.1951 .338618325
 172500     .1725  -42457.734 319886.036 63.8333046 319822.203 -362343.77 42521.5671 2.12777682
 173000      .173  -90971.932 348567.299 115.796772 348451.502 -439539.23 91087.7291  3.8598924
 173500     .1735  -138282.39 371775.806 159.349484 371616.457 -510058.19 138441.738 5.31164947
 174000      .174  -182607.01 388404.297 191.882153 388212.415 -571011.31 182798.896 6.39607177
 174500     .1745  -222358.55 397429.893   226.4142 397203.478 -619788.45 222584.969 7.54714001
 175000      .175  -257427.07 399058.128 278.089772 398780.039  -656485.2 257705.165 9.26965906
 175500     .1755  -288410.46 394195.641  342.82189 393852.819  -682606.1  288753.28 11.4273963
 176000      .176  -315279.99 383370.349 406.514989 382963.834 -698650.34 315686.509 13.5504996
 176500     .1765  -337325.78 366624.473    461.063  366163.41 -703950.26 337786.847 15.3687667
 177000      .177  -353758.12 343994.316 500.875083 343493.441 -697752.44    354259. 16.6958361
 177500     .1775  -363345.77 315112.676 526.665304 314586.011 -678458.45 363872.436 17.5555101
 178000      .178  -365439.39 279986.242 552.848808 279433.393 -645425.63 365992.238 18.4282936
 178500     .1785   -360814.6 239764.052 590.415037 239173.637 -600578.65 361405.016 19.6805012
 179000      .179  -350607.63 195963.689 631.705503 195331.983 -546571.32 351239.335 21.0568501
 179500     .1795  -335241.86 149563.129 664.556282 148898.573 -484804.99 335906.419 22.1518761
 180000       .18  -314688.58 101160.673 682.893346  100477.78 -415849.25 315371.474 22.7631115
 180500     .1805   -288797.3 51238.2671  683.09769 50555.1694 -340035.57 289480.396  22.769923
 181000      .181   -257149.8 -82.441981 669.647082 -752.08906 -257067.36 257819.447 22.3215694
 181500     .1815   -220132.7  -52158.01 657.463365 -52815.473 -167974.69  220790.16 21.9154455
 182000      .182  -179312.13 -103442.22 653.589931 -104095.81 -75869.913  179965.72  21.786331
 182500     .1825  -136247.44 -152373.38 648.671309 -153022.05 16125.9413 136896.114  21.622377
 183000      .183    -91700.3 -198067.59 633.174692 -198700.77 106367.292 92333.4746 21.1058231
 183500     .1835  -46107.934 -239970.53 603.168097 -240573.69 193862.592 46711.1025 20.1056032
 184000      .184  331.781083  -277792.8  557.38451 -278350.19 278124.582 225.603426 18.5794837
 184500     .1845  47550.7494  -311534.1 503.619486 -312037.72 359084.852  -47047.13 16.7873162
 185000      .185  94610.2093 -340614.53 456.115182 -341070.65 435224.744 -94154.094 15.2038394
 185500     .1855   139757.98  -363839.8 418.070632 -364257.87 503597.781 -139339.91 13.9356877
 186000      .186  181591.794 -380291.08 379.653523 -380670.74 561882.878 -181212.14 12.6551174
 186500     .1865  219549.931 -389771.37 333.781419 -390105.16 609321.306 -219216.15 11.1260473
 187000      .187  253347.084 -392365.81 278.196888 -392644.01 645712.896 -253068.89  9.2732296
 187500     .1875  283035.399 -388504.57 213.760819 -388718.33 671539.965 -282821.64 7.12536062
 188000      .188  308663.068  -378761.8 150.352551 -378912.15 687424.866 -308512.72 5.01175169
 188500     .1885  329434.493 -363095.46 100.129081 -363195.59 692529.954 -329334.36 3.33763602
 189000      .189  344111.113 -341086.56 62.4346713   -341149. 685197.675 -344048.68 2.08115571
 189500     .1895  352049.174 -312753.43 27.4780628 -312780.91 664802.601  -352021.7 .915935426
 190000       .19  353387.678 -278744.79 -10.107958 -278734.68 632132.465 -353397.79 -.33693194
 190500     .1905  348506.693 -239904.57 -51.671272  -239852.9 588411.262 -348558.36 -1.7223757
 191000      .191  338118.473 -197377.32  -94.81295  -197282.5 535495.788 -338213.29 -3.1604317
 191500     .1915  322757.054   -152227. -129.12926 -152097.87 474984.051 -322886.18 -4.3043087
 192000      .192  302162.795 -104856.94  -145.7787 -104711.16 407019.731 -302308.57 -4.8592901
 192500     .1925  275914.436 -55442.621  -149.0512 -55293.569 331357.056 -276063.49 -4.9683733
 193000      .193  244282.252 -4624.4993 -148.46623 -4476.0331 248906.751 -244430.72 -4.9488743
 193500     .1935  208143.276 46523.4995  -148.3719 46671.8714 161619.777 -208291.65 -4.9457301
 194000      .194  168543.073  96849.416 -149.75062 96999.1667 71693.6567 -168692.82 -4.9916874
 194500     .1945  126730.014 145043.807 -149.17805 145192.985 -18313.793 -126879.19 -4.9726017
 195000      .195  83558.0943 190125.119  -136.9653 190262.084 -106567.02  -83695.06 -4.5655098
 195500     .1955  39136.3011 231794.908 -108.12493 231903.033 -192658.61 -39244.426 -3.6041643
 196000      .196  -6416.8082  269886.19 -69.781493 269955.972   -276303. 6347.02671 -2.3260498
 196500     .1965  -52329.222 303814.825 -30.800105 303845.625 -356144.05 52298.4218 -1.0266702
 197000      .197  -97465.317 332776.158 5.26404884 332770.894 -430241.47 97470.5812 .175468295
 197500     .1975  -140624.44 355981.161 37.8202631 355943.341  -496605.6 140662.255 1.26067544
 198000      .198  -180602.84 372643.252 71.1765817 372572.076 -553246.09 180674.012 2.37255272
 198500     .1985  -216791.36 382484.139 113.737006 382370.402 -599275.49 216905.092 3.79123355
 199000      .199  -249249.86 385852.174 166.952415 385685.222 -635102.03 249416.809  5.5650805
 199500     .1995  -277919.55 383117.023 222.211623 382894.812 -661036.57 278141.757  7.4070541
 200000       0.2   -302191.7 374276.146 271.954594 374004.191 -676467.85 302463.657 9.06515315
 200500     .2005  -321310.71 359243.728 313.689213 358930.038 -680554.44 321624.401 10.4563071
 201000      .201  -334540.61 337968.602 347.734704 337620.868 -672509.22 334888.349 11.5911568
 201500     .2015  -341322.82 310502.795  379.42178 310123.374 -651825.62 341702.242 12.6473927
 202000      .202  -341797.75 277456.666 415.838859 277040.827 -619254.42 342213.591 13.8612953
 202500     .2025  -336626.56 239903.253 455.802413  239447.45 -576529.81 337082.361 15.1934138
 203000      .203  -326238.75  198777.23 490.711897 198286.518 -525015.98 326729.459 16.3570632
 203500     .2035  -310605.79  154642.14 514.975767 154127.165 -465247.93 311120.769 17.1658589
 204000      .204  -289667.16 108005.432 527.571909  107477.86 -397672.59 290194.734 17.5857303
 204500     .2045  -263404.28 59352.3678 530.285384 58822.0824 -322756.64 263934.561 17.6761795
 205000      .205  -232072.76 9295.11924 529.508219 8765.61102 -241367.88 232602.267  17.650274
 205500     .2055  -196593.19 -41069.874 531.089754 -41600.964 -155523.31 197124.277 17.7029918
 206000      .206  -158176.21 -90420.608 532.171704  -90952.78 -67755.603 158708.383 17.7390568
 206500     .2065  -117658.51 -137754.28 525.256233 -138279.53 20095.7637  118183.77 17.5085411
 207000      .207  -75465.943 -182460.59 506.977176 -182967.56 106994.643 75972.9206 16.8992392
 207500     .2075  -31997.401 -224027.09 477.874254 -224504.96 192029.688 32475.2748 15.9291418
 208000      .208  12340.7126  -262039.4 441.310131 -262480.71 274380.109 -11899.402 14.7103377
 208500     .2085    56854.52 -295964.58 404.330075 -296368.91   352819.1  -56450.19 13.4776692
 209000      .209  100330.071  -324913.9 371.354744 -325285.26 425243.975 -99958.716 12.3784915
 209500     .2095  141528.516 -348000.92   338.4453 -348339.36 489529.435 -141190.07   11.28151
 210000       .21  179720.408 -364787.73 299.568948  -365087.3 544508.135 -179420.84 9.98563161
 210500     .2105  214558.798 -375213.84 253.237396 -375467.08 589772.638 -214305.56 8.44124653
 211000      .211  245768.369 -379346.99 201.150999 -379548.14  625115.36 -245567.22 6.70503328
 211500     .2115  273102.578 -377372.37 147.764111 -377520.13 650474.947 -272954.81 4.92547038
 212000      .212  296043.598 -369333.17 99.9034346 -369433.07 665376.766 -295943.69 3.33011449
  % % % % % %   Suspended simulation;  plot data space exhausted;  SPY SPACE is required.   LIMBUF =  340000.
  % % % % % %   Suspended simulation;  plot data space exhausted;  SPY SPACE is required.   LIMBUF =  340000.
  +++  Time-sharing disabled.   Send  user-keyed interrupt to silence alarm.
   Current values.  INDBUF  INDBEG  LIMBUF  MFLUSH  NUMDCD  KCARD1  KCARD2
                    339994      50  340000    1004      46       1      50
Plot timespan now in memory (in sec) = 1.69967994E-01   2.12461000E-01
   ++++  Begin plot-data copy from memory to disk.   MFLUSH, INDBUF, N4, Tbeg,  Tend = 1005  339994       1  -1.00000E+00
1.00000E+19
 212500     .2125  313729.736 -355017.93 60.0855544 -355078.02  668747.67 -313669.65 2.00285181
 213000      .213  325493.398  -334359.2 23.4771335 -334382.68 659852.601 -325469.92 .782571117
 213500     .2135  331237.984 -307755.58 -14.738533 -307740.85 638993.569 -331252.72 -.49128444
 214000      .214   331187.32  -275889.6 -54.928379 -275834.67 607076.923 -331242.25  -1.830946
 214500     .2145  325650.746 -239533.89 -94.916549 -239438.97 565184.635 -325745.66  -3.163885
 215000      .215  314943.094 -199503.97 -129.97566   -199374. 514447.065 -315073.07  -4.332522
 215500     .2155  299095.319 -156391.74 -154.48226 -156237.26 455487.056  -299249.8 -5.1494087
 216000      .216  277926.522  -110572.1 -168.25165 -110403.84 388498.618 -278094.77 -5.6083882
 216500     .2165  251562.815  -62599.46 -176.93089 -62422.529 314162.274 -251739.75 -5.8976964
 217000      .217  220648.288 -13400.573 -184.53571 -13216.037  234048.86 -220832.82 -6.1511905
 217500     .2175  186024.088 35970.0647 -191.01867 36161.0834 150054.023 -186215.11 -6.3672889
 218000      .218  148558.444 84467.2552 -194.26727 84661.5225 64091.1888 -148752.71 -6.4755758
 218500     .2185     109025. 131141.072 -189.95657 131331.029 -22116.073 -109214.96 -6.3318856
 219000      .219  67859.1469 175369.375 -174.28832 175543.663 -107510.23 -68033.435 -5.8096108
 219500     .2195  25350.3919 216743.321 -149.38223 216892.704 -191392.93 -25499.774 -4.9794076
 220000       .22  -17896.854 254698.893 -121.36151 254820.255 -272595.75 17775.4924 -4.0453836
 220500     .2205  -60905.268  288440.47 -93.582904 288534.052 -349345.74 60811.6851 -3.1194301
 221000      .221  -102658.26 317195.985 -65.849486 317261.835 -419854.25 102592.415 -2.1949829
 221500     .2215  -142218.69 340302.059 -36.191481  340338.25 -482520.74 142182.494 -1.2063827
 222000      .222  -178877.01 357315.173 -.89506265 357316.068 -536192.18 178876.115 -.02983542
 222500     .2225  -212315.47 368174.799 42.0082003  368132.79 -580490.27 212357.478 1.40027334
 223000      .223  -242324.22 373000.072 88.7240039 372911.348 -615324.29 242412.945  2.9574668
 223500     .2235  -268418.42 371765.897 133.354092 371632.543 -640184.32 268551.777 4.44513639
 224000      .224   -289903.4 364320.476  173.45313 364147.023 -654223.87 290076.848 5.78177101
 224500     .2245  -306172.82 350610.952 209.588461 350401.364 -656783.77 306382.409 6.98628202
 225000      .225  -316788.85 330728.697 243.922421 330484.774 -647517.55 317032.772 8.13074736
 225500     .2255  -321633.37 305028.193 279.763514 304748.429 -626661.56  321913.13 9.32545047
 226000      .226  -320970.16 274202.136 317.726365 273884.409 -595172.29 321287.885 10.5908788
 226500     .2265  -315103.07 239018.072 353.329894 238664.742 -554121.14 315456.395 11.7776631
 227000      .227  -304081.26 200054.555 381.718938 199672.836 -504135.81 304462.975 12.7239646
 227500     .2275  -287850.84 157789.556 401.754724 157387.802  -445640.4 288252.599 13.3918241
 228000      .228  -266490.66 112777.866 414.766338   112363.1 -379268.53 266905.428 13.8255446
 228500     .2285  -240267.31 65675.8061  423.49779 65252.3083 -305943.12 240690.809  14.116593
 229000      .229  -209768.91 17354.9835 431.116722 16923.8668 -227123.89 210200.024 14.3705574
 229500     .2295  -175862.83 -31108.219 437.429469 -31545.648 -144754.61 176300.259 14.5809823
 230000       .23  -139334.11  -78719.34 438.142578 -79157.483 -60614.769 139772.251 14.6047526
 230500     .2305  -100687.31 -124753.09 429.964838 -125183.06 24065.7852 101117.274 14.3321613
 231000      .231  -60350.599 -168613.62  413.20451 -169026.83 108263.023 60763.8032 13.7734837
 231500     .2315  -18846.359  -209703.5  390.09437 -210093.59 190857.137 19236.4533 13.0031457
 232000      .232  23163.3042   -247398. 364.005443 -247762.01 270561.306 -22799.299 12.1335148
 232500     .2325  64772.3837 -280943.58 337.923725  -281281.5 345715.965  -64434.46 11.2641242
 233000      .233  104959.784 -309535.67  311.09061 -309846.76 414495.457 -104648.69  10.369687
 233500     .2335   142931.06 -332591.64 279.795461 -332871.43 475522.698 -142651.26 9.32651536
 234000      .234   178213.22 -349849.16 242.272657 -350091.43 528062.377 -177970.95 8.07575524
 234500     .2345   210425.25 -361192.94 199.946245 -361392.88 571618.188  -210225.3 6.66487484
 235000      .235  239158.308 -366557.45 155.643035 -366713.09 605715.757 -239002.66 5.18810115
 235500     .2355  263925.673 -365884.93 112.931693 -365997.86 629810.599 -263812.74 3.76438977
 236000      .236   284093.24 -359041.97 74.1892292 -359116.16 643135.206 -284019.05 2.47297431
 236500     .2365  299065.143 -345941.63 37.9691998  -345979.6 645006.772 -299027.17 1.26563999
 237000      .237   308572.03 -326774.73 1.04527328 -326775.78 635346.765 -308570.99 .034842443
 237500     .2375  312663.541 -302019.42 -37.327588 -301982.09 614682.963 -312700.87 -1.2442529
 238000      .238  311475.091  -272254.3 -75.275116 -272179.03 583729.394 -311550.37 -2.5091705
 238500     .2385  305140.206 -238083.21 -109.97839 -237973.23 543223.415 -305250.18 -3.6659465
 239000      .239  293729.668 -200074.96 -138.34427 -199936.62 493804.633 -293868.01 -4.6114757
 239500     .2395  277220.168 -158707.55 -159.15701 -158548.39 435927.716 -277379.33 -5.3052337
 240000       .24  255707.104 -114516.29 -174.77609 -114341.51 370223.394 -255881.88 -5.8258698
 240500     .2405  229619.321 -68270.806 -188.22084 -68082.586 297890.127 -229807.54 -6.2740279
 241000      .241  199623.994 -20911.595 -199.80699 -20711.788 220535.588  -199823.8 -6.6602329
 241500     .2415  166409.362 26627.3629 -207.82172 26835.1847 139781.999 -166617.18 -6.9273906
 242000      .242  130616.924 73476.1504 -209.96316 73686.1136 57140.7735 -130826.89 -6.9987718
 242500     .2425   92775.406 118895.866 -204.11679 119099.982  -26120.46 -92979.523  -6.803893
 243000      .243  53312.8523 162294.663   -190.507  162485.17 -108981.81 -53503.359 -6.3502332
 243500     .2435   12775.216 203064.089 -172.37172 203236.461 -190288.87 -12947.588 -5.7457242
 244000      .244   -28036.34 240455.846 -152.59597 240608.442 -268492.19 27883.7436 -5.0865324
 244500     .2445  -68219.886  273690.98  -131.3556 273822.335 -341910.87   68088.53 -4.3785201
 245000      .245   -106955.9 302106.529  -107.3121 302213.841 -409062.43 106848.588 -3.5770699
 245500     .2455  -143558.05 325194.131 -78.788073 325272.919 -468752.18 143479.259 -2.6262691
 246000      .246  -177529.36 342656.033 -44.694445 342700.728  -520185.4  177484.67 -1.4898148
 246500     .2465  -208501.66 354372.521 -6.4735551 354378.995 -562874.18 208495.182 -.21578517
 247000      .247  -236023.85  360230.49 32.2150464 360198.275 -596254.34 236056.066 1.07383488
 247500     .2475  -259494.14 360047.386 68.9081414 359978.478 -619541.53  259563.05 2.29693805
 248000      .248  -278339.77 353698.249 103.700504 353594.549 -632038.02 278443.468 3.45668346
 248500     .2485  -292153.34 341219.537 137.788663 341081.748 -633372.88 292291.132 4.59295543
 249000      .249  -300724.65 322828.596 172.519825 322656.076 -623553.25 300897.172 5.75066084
 249500     .2495  -304070.89 298955.243 208.321234 298746.921 -603026.14 304279.214 6.94404112
 250000       .25  -302328.47 270162.293 243.139498 269919.154 -572490.76 302571.606 8.10464992
 250500     .2505  -295557.98  236977.58 273.600633  236703.98 -532535.56 295831.585 9.12002108
 251000      .251  -283734.04 199860.571 298.131657 199562.439 -483594.61 284032.167  9.9377219
 251500     .2515  -266921.65 159328.207   317.4312 159010.776 -426249.86 267239.082   10.58104
 252000      .252  -245363.47 116017.701 332.955428 115684.745 -361381.17 245696.427 11.0985143
 252500     .2525  -219492.88 70692.6404 346.119211 70346.5212 -290185.52 219838.997  11.537307
 253000      .253  -189929.87 24247.2359 357.134469 23890.1014 -214177.11 190287.006 11.9044823
 253500     .2535   -157336.8 -22405.721 363.958276 -22769.679 -134931.07 157700.754 12.1319425
 254000      .254  -122252.09 -68482.552 364.079045 -68846.631 -53769.541 122616.172 12.1359682
 254500     .2545  -85128.443 -113319.49  357.10431  -113676.6 28191.0494 85485.5477  11.903477
  % % % % % %   Suspended simulation;  plot data space exhausted;  SPY SPACE is required.   LIMBUF =  340000.
  % % % % % %   Suspended simulation;  plot data space exhausted;  SPY SPACE is required.   LIMBUF =  340000.
  +++  Time-sharing disabled.   Send  user-keyed interrupt to silence alarm.
   Current values.  INDBUF  INDBEG  LIMBUF  MFLUSH  NUMDCD  KCARD1  KCARD2
                    339994      50  340000    1005      46       1      50
Plot timespan now in memory (in sec) = 2.12459996E-01   2.54953000E-01
   ++++  Begin plot-data copy from memory to disk.   MFLUSH, INDBUF, N4, Tbeg,  Tend = 1006  339994       1  -1.00000E+00
1.00000E+19
 255000      .255  -46489.982 -156255.35 344.505783 -156599.85 109765.365 46834.4882 11.4835261
 255500     .2555  -6979.6528 -196596.51 328.190254  -196924.7 189616.857 7307.84308 10.9396751
 256000      .256  32640.3824 -233613.81 309.782454 -233923.59 266254.191   -32330.6 10.3260818
 256500     .2565  71524.5173 -266559.22 289.458731 -266848.67 338083.733 -71235.059 9.64862436
 257000      .257  108903.116 -294788.83 265.475014  -295054.3 403691.942 -108637.64 8.84916714
 257500     .2575  144205.307 -317872.46 236.323712 -318108.79 462077.772 -143968.98 7.87745708
 258000      .258  176978.615 -335541.72 202.653999 -335744.38 512520.338 -176775.96  6.7551333
 258500     .2585  206754.596 -347581.43 166.491186 -347747.93 554336.031 -206588.11  5.5497062
 259000      .259  233025.184 -353806.51 129.977882 -353936.49 586831.694 -232895.21 4.33259607
 259500     .2595  255246.376 -354053.28 94.6916822 -354147.97 609299.657 -255151.68 3.15638941
 260000       .26   272895.62 -348208.64 60.5790052 -348269.22 621104.258 -272835.04 2.01930017
 260500     .2605  285623.202 -336324.61 26.0740594 -336350.68 621947.811 -285597.13 .869135312
 261000      .261  293319.899 -318679.24 -9.6265447 -318669.62 611999.141 -293329.53 -.32088482
 261500     .2615   296001.74 -295688.04  -45.34495 -295642.69 591689.778 -296047.08 -1.5114983
 262000      .262  293696.621 -267805.37 -79.022554 -267726.35 561501.989 -293775.64 -2.6340851
 262500     .2625  286430.043 -235503.57 -108.77255 -235394.79  521933.61 -286538.82 -3.6257517
 263000      .263  274228.012 -199258.72 -133.54413 -199125.17 473486.728 -274361.56  -4.451471
 263500     .2635  257186.145 -159588.57 -153.98434 -159434.59 416774.718 -257340.13 -5.1328112
 264000      .264  235596.417 -117149.11 -171.77801 -116977.33 352745.522 -235768.19 -5.7259336
 264500     .2645  209957.698 -72748.483 -187.47826 -72561.005 282706.181 -210145.18 -6.2492754
 265000      .265  180838.916 -27237.403 -199.94513 -27037.458 208076.319 -181038.86 -6.6648377
 265500     .2655  148786.662  18573.368 -207.58124 18780.9492 130213.294 -148994.24 -6.9193747
 266000      .266  114314.524 63930.9436 -209.18057 64140.1241   50383.58  -114523.7 -6.9726857
 266500     .2665  77908.2597 108151.067  -204.5665 108355.633 -30242.807 -78112.826 -6.8188833
 267000      .267   40102.218 150568.703 -195.16546 150763.868 -110466.48 -40297.383 -6.5055152
 267500     .2675  1575.84328 190459.118 -182.91131 190642.029 -188883.27 -1758.7546 -6.0970437
 268000      .268  -36882.885 227058.235 -168.35731 227226.592 -263941.12 36714.5272 -5.6119103
 268500     .2685  -74516.645 259672.491 -150.67702 259823.168 -334189.14 74365.9682 -5.0225672
 269000      .269   -110665.9  287736.29 -128.89169 287865.181 -398402.19 110537.012 -4.2963897
 269500     .2695  -144772.83 310819.969 -102.54378 310922.513  -455592.8  144670.29 -3.4181259
 270000       .27  -176364.73  328624.93 -72.285853 328697.216 -504989.66 176292.446 -2.4095284
 270500     .2705  -204969.89 340918.766 -40.116995 340958.883 -545888.66 204929.777 -1.3372332
 271000      .271  -230048.39 347469.623 -7.9983204 347477.621 -577518.02 230040.395 -.26661068
 271500     .2715   -251058.2 348085.453 23.6317484 348061.821 -599143.65 251081.833 .787724947
 272000      .272  -267577.16 342706.341 55.4165728 342650.924 -610283.51 267632.581 1.84721909
 272500     .2725    -279340. 331432.057 87.9563753 331344.101 -610772.06 279427.958 2.93187918
 273000      .273  -286229.13 314514.672 121.269798 314393.402  -600743.8 286350.398  4.0423266
 273500     .2735  -288238.33 292331.424 154.284062  292177.14 -580569.75  288392.61 5.14280208
 274000      .274   -285381.2 265306.045 184.944249   265121.1 -550687.25 285566.147  6.1648083
 274500     .2745  -277644.68 233855.757 211.721698 233644.036 -511500.44   277856.4 7.05738992
 275000      .275  -265067.93 198439.252 234.630953 198204.621 -463507.18  265302.56 7.82103177
 275500     .2755  -247834.88 159624.328 254.480781 159369.848 -407459.21 248089.362 8.48269269
 276000      .276  -226281.53 118089.754 271.901085 117817.853 -344371.29 226553.435 9.06336951
 276500     .2765  -200871.33 74604.6046 286.901784 74317.7028 -275475.94 201158.234 9.56339279
 277000      .277  -172138.42   29982.61 298.475183 29684.1348 -202121.03 172436.893 9.94917275
 277500     .2775   -140594.8 -15000.056 305.021853 -15305.078 -125594.75 140899.823 10.1673951
 278000      .278  -106706.21 -59639.232 305.825589 -59945.057 -47066.978 107012.035 10.1941863
 278500     .2785  -70974.233 -103248.06 301.594573 -103549.65 32273.8239 71275.8273 10.0531524
 279000      .279  -33998.484 -145109.85  293.53383 -145403.39  111111.37 34292.0174 9.78446098
 279500     .2795  3537.34815 -184489.71 282.541085 -184772.25 188027.057 -3254.8071 9.41803616
 280000       .28  40900.7913 -220659.69 268.838653 -220928.53 261560.478 -40631.953 8.96128842
 280500     .2805  77379.1855 -252951.33 251.721514 -253203.05 330330.511 -77127.464 8.39071712
 281000      .281  112361.617 -280826.31 230.242394 -281056.56 393187.932 -112131.37 7.67474646
 281500     .2815  145336.571 -303883.89 204.524712 -304088.42 449220.466 -145132.05 6.81749041
 282000      .282  175808.829 -321797.26  175.87004 -321973.13  497606.09 -175632.96 5.86233468
 282500     .2825  203259.617  -334277.6 145.769824 -334423.37 537537.218 -203113.85 4.85899413
 283000      .283  227168.861 -341085.85 115.268468 -341201.12 568254.712 -227053.59 3.84228226
 283500     .2835  247052.257 -342053.52 84.6614882 -342138.18  589105.78  -246967.6 2.82204961
 284000      .284  262528.749  -337130.2 53.4184124 -337183.62 599658.951 -262475.33 1.78061375
 284500     .2845  273378.726 -326430.89 21.0513893 -326451.94 599809.616 -273357.67 .701712978
 285000      .285  279511.692 -310212.74 -11.822199 -310200.92 589724.432 -279523.51 -.39407329
 285500     .2855  280882.256 -288803.33 -43.726928 -288759.61 569685.589 -280925.98 -1.4575643
 286000      .286  277463.037 -262569.75 -73.280867 -262496.47 540032.789 -277536.32 -2.4426956
 286500     .2865  269264.804 -231924.09 -99.676754 -231824.41 501188.894 -269364.48 -3.3225585
 287000      .287  256368.821  -197337.5  -122.9102 -197214.59 453706.325 -256491.73 -4.0970065
 287500     .2875  238983.447 -159377.94   -143.665 -159234.28 398361.388 -239127.11 -4.7888333
 288000      .288  217472.132 -118731.92  -162.3466 -118569.57 336204.052 -217634.48 -5.4115533
 288500     .2885  192294.285 -76156.753  -178.3173 -75978.435 268451.038  -192472.6 -5.9439101
 289000      .289  163924.039 -32408.566 -190.39993 -32218.166 196332.605 -164114.44 -6.3466645
 289500     .2895  132831.632 11782.0565 -197.72307 11979.7795 121049.576 -133029.36 -6.5907689
 290000       .29  99499.0459 55707.5088  -200.0639 55907.5727 43791.5371  -99699.11 -6.6687966
 290500     .2905  64447.9822 98670.0998 -197.98966 98868.0895 -34222.118 -64645.972 -6.5996554
 291000      .291  28283.7321 139950.497 -192.55439 140143.052 -111666.77 -28476.286 -6.4184797
 291500     .2915  -8303.8412 178804.299 -184.32309 178988.622 -187108.14 8119.51808 -6.1441031
 292000      .292  -44614.707 214520.174 -172.91785 214693.091 -259134.88 44441.7894 -5.7639285
 292500     .2925  -80008.285 246479.598 -157.67872 246637.277 -326487.88 79850.6059 -5.2559573
 293000      .293  -113911.16 274167.887 -138.36452 274306.252 -388079.05 113772.797 -4.6121508
 293500     .2935  -145800.63 297165.751 -115.37943 297281.131 -442966.38  145685.25 -3.8459809
 294000      .294  -175174.98 315128.234 -89.817112 315218.051 -490303.22 175085.164 -2.9939037
 294500     .2945  -201517.88 327752.581 -62.996007 327815.577 -529270.46 201454.883 -2.0998669
 295000      .295  -224314.48 334782.887 -35.558764 334818.446 -559097.37 224278.923 -1.1852921
 295500     .2955  -243125.67 336063.968 -7.3156085 336071.284 -579189.64 243118.358 -.24385362
 296000      .296   -257636.2 331578.828 22.0247037 331556.803 -589215.03 257658.222  .73415679
 296500     .2965  -267646.76 321441.477 52.3079295 321389.169 -589088.23 267699.065 1.74359765
 297000      .297  -273049.49 305876.235 82.8002002 305793.435 -578925.72 273132.287 2.76000667
  % % % % % %   Suspended simulation;  plot data space exhausted;  SPY SPACE is required.   LIMBUF =  340000.
  % % % % % %   Suspended simulation;  plot data space exhausted;  SPY SPACE is required.   LIMBUF =  340000.
  +++  Time-sharing disabled.   Send  user-keyed interrupt to silence alarm.
   Current values.  INDBUF  INDBEG  LIMBUF  MFLUSH  NUMDCD  KCARD1  KCARD2
                    339994      50  340000    1006      46       1      50
Plot timespan now in memory (in sec) = 2.54952013E-01   2.97445000E-01
   ++++  Begin plot-data copy from memory to disk.   MFLUSH, INDBUF, N4, Tbeg,  Tend = 1007  339994       1  -1.00000E+00
1.00000E+19
 297500     .2975  -273790.64 285184.165 112.244263 285071.921 -558974.81 273902.889 3.74147542
 298000      .298  -269838.43 259707.876 139.438298 259568.437  -529546.3 269977.866 4.64794328
 298500     .2985  -261206.58 229838.586 163.989767 229674.596 -491045.17 261370.574 5.46632555
 299000      .299  -248016.54 196058.276 186.209182 195872.067 -444074.82  248202.75 6.20697273
 299500     .2995  -230519.56 158953.723 206.378546 158747.345 -389473.29 230725.942 6.87928487
 300000       0.3  -209072.54 119193.799 224.348042 118969.451 -328266.34 209296.892 7.47826808
 300500     .3005  -184103.08 77498.2478 239.473096 77258.7747 -261601.33 184342.552 7.98243655
 301000      .301  -156064.79 34595.9978 250.767177 34345.2306 -190660.79 156315.557  8.3589059
 301500     .3015  -125409.16 -8807.7091 257.536449 -9065.2455 -116601.45 125666.691  8.5845483
 302000      .302  -92612.831 -52019.742 259.937666  -52279.68 -40593.089 92872.7686 8.66458888
 302500     .3025  -58224.385 -94326.603 258.660428 -94585.263 36102.2173 58483.0458 8.62201426
 303000      .303  -22864.755 -134995.62 254.247333 -135249.86 112130.863 23119.0021 8.47491112
 303500     .3035  12807.0168 -173303.18 246.815545   -173550. 186110.201 -12560.201 8.22718483
 304000      .304   48133.945 -208567.59 236.051541 -208803.64 256701.536 -47897.894  7.8683847
 304500     .3045  82505.5795 -240187.86  221.45194 -240409.31 322693.435 -82284.128 7.38173134
 305000      .305  115375.709 -267664.13 202.956407 -267867.08 383039.835 -115172.75 6.76521357
 305500     .3055  146228.993 -290575.29 181.288276 -290756.58  436804.28  -146047.7 6.04294253
 306000      .306  174545.261 -308549.13 157.489077 -308706.61 483094.387 -174387.77 5.24963588
 306500     .3065  199810.239 -321267.11 132.328341 -321399.43 521077.344 -199677.91 4.41094469
 307000      .307  221549.533 -328487.09 106.131444 -328593.22 550036.623  -221443.4  3.5377148
 307500     .3075   239364.86 -330068.17 78.8278778   -330147. 569433.027 -239286.03 2.62759593
 308000      .308  252967.993 -325996.44 50.2683057 -326046.71 578964.435 -252917.72 1.67561019
 308500     .3085  262180.506 -316385.45 20.8070588 -316406.26 578565.954  -262159.7 .693568628
 309000      .309  266890.925 -301439.62 -8.5683314 -301431.05 568330.546 -266899.49 -.28561105
 309500     .3095  267023.958 -281422.71 -36.781439 -281385.92 548446.664 -267060.74  -1.226048
 310000       .31  262552.383 -256658.98 -63.142649 -256595.83 519211.361 -262615.53  -2.104755
 310500     .3105  253522.807 -227545.58 -87.430118 -227458.14 481068.382 -253610.24 -2.9143373
 311000      .311  240081.327 -194566.08 -109.78606 -194456.29 434647.404 -240191.11 -3.6595353
 311500     .3115  222490.723 -158300.55 -130.33971 -158170.21 380791.277 -222621.06 -4.3446569
 312000      .312  201110.073 -119407.03 -148.71208 -119258.32 320517.104 -201258.78 -4.9570693
 312500     .3125  176343.736 -78575.459 -164.07053 -78411.388 254919.195 -176507.81 -5.4690177
 313000      .313   148613.86 -36497.263 -175.68769 -36321.575 185111.123 -148789.55 -5.8562562
 313500     .3135   118369.81 6135.52732 -183.29162 6318.81894 112234.283  -118553.1 -6.1097206
 314000      .314  86105.0213 48624.2644 -187.06877 48811.3331  37480.757  -86292.09 -6.2356256
 314500     .3145  52372.5107  90256.336 -187.50322 90443.8392 -37883.825 -52560.014 -6.2501073
 315000      .315  17786.9845 130304.953 -184.96292 130489.916 -112517.97 -17971.947 -6.1654306
 315500     .3155  -17009.718 168057.273  -179.3177 168236.591 -185066.99    16830.4 -5.9772567
 316000      .316  -51399.909 202858.691 -170.13993 203028.831  -254258.6 51229.7687 -5.6713312
 316500     .3165  -84809.883 234133.721 -157.22755 234290.949  -318943.6 84652.6556 -5.2409183
 317000      .317  -116699.38 261381.629 -140.83212 261522.461 -378081.01 116558.545  -4.694404
 317500     .3175  -146547.58 284167.692 -121.59798  284289.29 -430715.28 146425.986  -4.053266
 318000      .318  -173841.47 302113.305 -100.34924 302213.654 -475954.77  173741.12 -3.3449746
 318500     .3185  -198081.15 314896.436  -77.66988 314974.105 -512977.58 198003.476  -2.588996
 319000      .319  -218817.69 322277.869 -53.652008 322331.521 -541095.56 218764.036 -1.7884003
 319500     .3195  -235694.03 324132.641 -28.201866 324160.843 -559826.67 235665.829 -.94006221
 320000       .32   -248450.6 320454.129 -1.4947112 320455.624 -568904.73 248449.105 -.04982371
 320500     .3205  -256907.69 311338.403 25.9033765   311312.5  -568246.1 256933.597 .863445883
 321000      .321  -260947.12 296966.301 53.1440144 296913.157 -557913.42 261000.265 1.77146715
 321500     .3215  -260497.83 277585.895 79.3488991 277506.547 -538083.73 260577.183  2.6449633
 322000      .322  -255541.43 253508.599 104.001143 253404.597 -509050.03 255645.436 3.46670477
 322500     .3225  -246144.04 225127.441 127.059524 225000.381 -471271.48 246271.098 4.23531746
 323000      .323  -232479.92 192931.687 148.586076   192783.1 -425411.61 232628.507  4.9528692
 323500     .3235  -214820.42 157494.329 168.374918 157325.954 -372314.75 214988.796 5.61249726
 324000      .324  -193507.17 119446.293 185.914154 119260.379 -312953.47 193693.089 6.19713846
 324500     .3245  -168927.16 79450.8449 200.526193 79250.3187 -248378.01 169127.691 6.68420642
 325000      .325  -141494.64 38181.4423 211.641411 37969.8009 -179676.08 141706.281 7.05471371
 325500     .3255  -111655.11 -3683.5825 219.129037 -3902.7115 -107971.52 111874.234 7.30430125
 326000      .326  -79908.886 -45448.322 223.278508 -45671.601 -34460.563  80132.164 7.44261692
 326500     .3265  -46818.584 -86396.381 224.397459 -86620.778 39577.7965 47042.9816  7.4799153
 327000      .327  -12986.034 -125811.64 222.528609 -126034.17 112825.605 13208.5622 7.41762031
 327500     .3275  20978.9307 -163005.84 217.473289 -163223.31 183984.766 -20761.457 7.24910962
 328000      .328  54485.1369 -197343.28 208.951697 -197552.24 251828.421 -54276.185 6.96505658
 328500     .3285  86976.2427 -228258.47  196.87949 -228455.35 315234.713 -86779.363 6.56264966
 329000      .329  117923.722  -255254.7 181.616022 -255436.31 373178.418 -117742.11 6.05386739
 329500     .3295  146807.335 -277889.57 163.830829  -278053.4 424696.908  -146643.5 5.46102764
 330000       .33  173116.251 -295774.23  144.10696 -295918.34 468890.481 -172972.14 4.80356533
[...]
                                   1  5.5582039E-02    2  5.5000287E-02    3  5.4827331E-02    4  1.1120359E-02    5  7.0040328E-01
                                   6  7.0130275E-01    7  6.9943550E-01

                   607797.992 -653345.44  -600661.4  996668.61 854034.832 -963235.03 2266.49609
Times of maxima :     .718188    .713357    .003112    .004096    .068022     .00224    .714037
             Random switching times for simulation number  296  :
                                   1  5.5801796E-02    2  5.4258744E-02    3  5.4176209E-02    4  1.0357663E-02    5  6.9853327E-01
                                   6  6.9869586E-01    7  6.9958808E-01

                   617902.583 -694273.47  -600661.4  996668.61 977582.139 -963235.03  2241.1855
Times of maxima :     .017871    .713573    .003112    .004096    .715058     .00224    .714067
             Random switching times for simulation number  297  :
                                   1  5.6055230E-02    2  5.4163897E-02    3  5.4929744E-02    4  9.5205641E-03    5  7.0046628E-01
                                   6  6.9931070E-01    7  6.9985771E-01

                   615595.578 -663776.05  -600661.4  996668.61 958146.282 -963235.03 2559.77987
Times of maxima :     .017783    .713639    .003112    .004096    .715065     .00224     .01462
             Random switching times for simulation number  298  :
                                   1  5.4402657E-02    2  5.4726493E-02    3  5.5809066E-02    4  1.1302849E-02    5  6.9999931E-01
                                   6  6.9999918E-01    7  7.0135056E-01

                   597374.536 -671660.59  -600661.4  996668.61 959441.957 -963235.03 2243.60395
Times of maxima :     .017995    .713621    .003112    .004096    .715064     .00224    .713988
             Random switching times for simulation number  299  :
                                   1  5.4359107E-02    2  5.5309833E-02    3  5.5354775E-02    4  9.7516764E-03    5  7.0067447E-01
                                   6  7.0174165E-01    7  7.0054964E-01

                   616196.658 -650796.93  -600661.4  996668.61 853245.839 -963235.03 2427.57823
Times of maxima :     .017814    .713642    .003112    .004096    .068028     .00224    .014769
             Random switching times for simulation number  300  :
                                   1  5.6212631E-02    2  5.5400460E-02    3  5.4330646E-02    4  9.8967378E-03    5  7.0009595E-01
                                   6  7.0031249E-01    7  6.9985806E-01

                   616400.866 -662738.85  -600661.4  996668.61 947468.942 -963235.03 2340.23436
Times of maxima :     .017805    .713652    .003112    .004096     .71512     .00224     .01488

 MAIN20 dumps OVER12 dice seed  SEEDSV =   3.0444871000000000E+09

Statistical output of  node  voltage   0.4287E+06 |              X0003AX0003BX0003C

1 ) -------------------------------------------------------------------------------------------------------------------------------
Statistical distribution of peak voltage at node  "X0003A".   The base voltage for per unit printout is  V-base = 4.28660705E+05
  Interval             voltage         voltage  in     Frequency    Cumulative               Per cent
    number         in per unit      physical units     (density)     frequency     .GE. current value
        27           1.3500000      5.78691952E+05             0             0          100.000000
        28           1.4000000      6.00124987E+05            15            15           95.000000
        29           1.4500000      6.21558022E+05           275           290            3.333333
        30           1.5000000      6.42991058E+05             2           292            2.666667
        31           1.5500000      6.64424093E+05             2           294            2.000000
        32           1.6000000      6.85857128E+05             0           294            2.000000
        33           1.6500000      7.07290163E+05             2           296            1.333333
        34           1.7000000      7.28723199E+05             2           298             .666667
        35           1.7500000      7.50156234E+05             0           298             .666667
        36           1.8000000      7.71589269E+05             2           300             .000000
Summary of preceding table follows:       Grouped data     Ungrouped data
                                 Mean = 1.42883333E+00     1.43592245E+00
                             Variance = 1.69930323E-03     1.57336879E-03
                   Standard deviation = 4.12226058E-02     3.96657130E-02

2 ) -------------------------------------------------------------------------------------------------------------------------------
Statistical distribution of peak voltage at node  "X0003B".   The base voltage for per unit printout is  V-base = 4.28660705E+05
  Interval             voltage         voltage  in     Frequency    Cumulative               Per cent
    number         in per unit      physical units     (density)     frequency     .GE. current value
        29           1.4500000      6.21558022E+05             0             0          100.000000
        30           1.5000000      6.42991058E+05             8             8           97.333333
        31           1.5500000      6.64424093E+05           108           116           61.333333
        32           1.6000000      6.85857128E+05           151           267           11.000000
        33           1.6500000      7.07290163E+05            27           294            2.000000
        34           1.7000000      7.28723199E+05             2           296            1.333333
        35           1.7500000      7.50156234E+05             4           300             .000000
Summary of preceding table follows:       Grouped data     Ungrouped data
                                 Mean = 1.56150000E+00     1.55990815E+00
                             Variance = 1.58135452E-03     1.37040616E-03
                   Standard deviation = 3.97662484E-02     3.70189972E-02

3 ) -------------------------------------------------------------------------------------------------------------------------------
  SUMMARY   SUMMARY   SUMMARY   SUMMARY   SUMMARY   SUMMARY   SUMMARY   SUMMARY   SUMMARY   SUMMARY   SUMMARY   SUMMARY   SUMMARY
3 ) -------------------------------------------------------------------------------------------------------------------------------
The following is a distribution of peak overvoltages among all output nodes of the last data card that have the same base voltage.
This distribution is for the maximum of the peaks at all output nodes with  V-base = 4.28660705E+05
  Interval             voltage         voltage  in     Frequency    Cumulative               Per cent
    number         in per unit      physical units     (density)     frequency     .GE. current value
        29           1.4500000      6.21558022E+05             0             0          100.000000
        30           1.5000000      6.42991058E+05             8             8           97.333333
        31           1.5500000      6.64424093E+05           107           115           61.666667
        32           1.6000000      6.85857128E+05           147           262           12.666667
        33           1.6500000      7.07290163E+05            28           290            3.333333
        34           1.7000000      7.28723199E+05             4           294            2.000000
        35           1.7500000      7.50156234E+05             4           298             .666667
        36           1.8000000      7.71589269E+05             2           300             .000000
Summary of preceding table follows:       Grouped data     Ungrouped data
                                 Mean = 1.56383333E+00     1.56199499E+00
                             Variance = 1.97355072E-03     1.71185364E-03
                   Standard deviation = 4.44246635E-02     4.13745530E-02

Statistical output of branch voltage   0.4287E+06 |-1            X0003BX0003CX0003AX0003BX0003CX0003A

4 ) -------------------------------------------------------------------------------------------------------------------------------
Statistical distribution of peak voltage  for branch  "X0003A"  to  "X0003B".   Base voltage  for per unit output = 4.28660705E+05
  Interval             voltage         voltage  in     Frequency    Cumulative               Per cent
    number         in per unit      physical units     (density)     frequency     .GE. current value
        38           1.9000000      8.14455340E+05             0             0          100.000000
        39           1.9500000      8.35888375E+05             6             6           98.000000
        40           2.0000000      8.57321410E+05            71            77           74.333333
        41           2.0500000      8.78754445E+05             0            77           74.333333
        42           2.1000000      9.00187481E+05             0            77           74.333333
        43           2.1500000      9.21620516E+05             0            77           74.333333
        44           2.2000000      9.43053551E+05             4            81           73.000000
        45           2.2500000      9.64486586E+05           157           238           20.666667
        46           2.3000000      9.85919622E+05            50           288            4.000000
        47           2.3500000      1.00735266E+06             8           296            1.333333
        48           2.4000000      1.02878569E+06             4           300             .000000
Summary of preceding table follows:       Grouped data     Ungrouped data
                                 Mean = 2.17216667E+00     2.17586858E+00
                             Variance = 1.48665273E-02     1.32001462E-02
                   Standard deviation = 1.21928370E-01     1.14891889E-01

5 ) -------------------------------------------------------------------------------------------------------------------------------
  SUMMARY   SUMMARY   SUMMARY   SUMMARY   SUMMARY   SUMMARY   SUMMARY   SUMMARY   SUMMARY   SUMMARY   SUMMARY   SUMMARY   SUMMARY
5 ) -------------------------------------------------------------------------------------------------------------------------------
A distribution of peak values among all output branches of the last data card that have the same base value follows.  This
statistical distribution is for the maximum of the peaks at all of these output branches having base  voltage  = 4.28660705E+05
  Interval             voltage         voltage  in     Frequency    Cumulative               Per cent
    number         in per unit      physical units     (density)     frequency     .GE. current value
        46           2.3000000      9.85919622E+05             0             0          100.000000
        47           2.3500000      1.00735266E+06           296           296            1.333333
        48           2.4000000      1.02878569E+06             4           300             .000000
Summary of preceding table follows:       Grouped data     Ungrouped data
                                 Mean = 2.32566667E+00     2.32586962E+00
                             Variance = 3.29988852E-05     2.79543523E-05
                   Standard deviation = 5.74446561E-03     5.28718756E-03

Blank card ends statistical tabulation requests.  |BLANK STATISTICS

                                      Sample curve symbols : "A", "B", and "C"
                                      Theoretical curve symbol : "*"
                                      Common curve symbol : "X"

        Switch  "X0001B"  to  "X0002B"            Switch  "X0001A"  to  "X0002A"            Switch  "X0001C"  to  "X0002C"
1.32420000E+00   switchings per column          1.32420000E+00   switchings per column     1.32420000E+00   switchings per column
              Columns                                     Columns                                     Columns
          5   10   15   20   25   30                5   10   15   20   25   30                5   10   15   20   25   30
     +----+----+----+----+----+----+           +----+----+----+----+----+----+           +----+----+----+----+----+----+
    X                                         X                                         X
    X                                         X                                         X
    X                                         X                                         X
    *A                                        X                                         X
    |*A                                       B*                                        |*C
    |A*                                       | X                                       | X
    |   X                                     | B *                                     |   *  C
    |       X                                 |       X                                 |     C *
    |      A    *                             |           *B                            |       C   *
    |                 * A                     |                 *    B                  |                 *  C
    |                       *     A           |                       X                 |                       *    C
    |                      A    *             |                           *   B         |                    C      *
    |  5.5000E-02                 *     A     |  5.5000E-02              B  *           |  5.5000E-02                 *     C
    |                           *      A      |                         B *             |                         C *
    |                  A    *                 |                       * B               |                       *     C
    |               A *                       |                B*                       |            C    *
    |         A *                             |          B*                             |        C  *
    |       * A                               |       X                                 |       *  C
    |  A*                                     |   X                                     | C *
    | *A                                      | X                                       | X
    |X                                        |X                                        |*C
    X                                         *B                                        X
    X                                         X                                         X
    X                                         X                                         *C
    X                                         X                                         X
   Time (scale = 3.33333333E-04  Sec/line)   Time (scale = 3.33333333E-04  Sec/line)   Time  (scale = 3.33333333E-04  Sec/line)

        Switch  "X0003C"  to  "XX0009"            Switch  "X0001B"  to  "X0002B"            Switch  "X0001A"  to  "X0002A"
1.32420000E+00   switchings per column          1.32420000E+00   switchings per column     1.32420000E+00   switchings per column
              Columns                                     Columns                                     Columns
          5   10   15   20   25   30                5   10   15   20   25   30                5   10   15   20   25   30
     +----+----+----+----+----+----+           +----+----+----+----+----+----+           +----+----+----+----+----+----+
    X                                         X                                         X
    X                                         X                                         X
    X                                         X                                         X
    *A                                        X                                         * C
    |X                                        |X                                        |*C
    | *A                                      | X                                       | X
    |  A*                                     |  B*                                     |   X
    |      A*                                 |    B  *                                 |     C *
    |         A *                             |           *  B                          |          C*
    |                 * A                     |                B*                       |                 X
    |                       *     A           |                       *    B            |                       X
    |                           *    A        |                           *B            |                           * C
    |  1.0000E-02                 *A          |  7.0000E-01                 *   B       |  7.0000E-01                C*
    |                           *   A         |                           *  B          |                           *  C
    |                A      *                 |                   B   *                 |                    C  *
    |                 * A                     |            B    *                       |                 X
    |           X                             |         B *                             |           * C
    |     A *                                 |     B *                                 |       X
    A   *                                     |   *  B                                  |   *C
    A *                                       | X                                       C *
    A*                                        |*B                                       |*C
    *A                                        *B                                        X
    X                                         X                                         X
    X                                         *B                                        X
    X                                         X                                         X
   Time (scale = 3.33333333E-04  Sec/line)   Time (scale = 3.33333333E-04  Sec/line)   Time  (scale = 3.33333333E-04  Sec/line)

   Switch  "X0001C"  to  "X0002C"
     1.32420000E+00   switchings per column
              Columns
          5   10   15   20   25   30
     +----+----+----+----+----+----+
    X
    X
    *A
    X
    |X
    |A*
    | A *
    |       X
    |           *    A
    |          A      *
    |                       *    A
    |                         A *
    |  7.0000E-01                A*
    |                          A*
    |                       X
    |                 *  A
    |           *       A
    |    A  *
    |   X
    A *
    A*
    *A
    X
    *A
    X
   Time (scale = 3.33333333E-04  Sec/line)
 .... Questionable Kolmogorov-Smirnov test result = 4.79983461E-01
 .... Questionable Kolmogorov-Smirnov test result = 8.61125218E-01
 .... Questionable Kolmogorov-Smirnov test result = 6.22920778E-01
 .... Questionable Kolmogorov-Smirnov test result = 8.70941508E-02
 .... Questionable Kolmogorov-Smirnov test result = 7.08509700E-01
 .... Questionable Kolmogorov-Smirnov test result = 9.61921384E-01
 .... Questionable Kolmogorov-Smirnov test result = 7.92096056E-01

Actual List Sizes for the preceding solution follow.       11-Nov-18  11.00.00
   Size  1-10:    27    26    38     3   138    13    42  5310     0     0
   Size 11-20:     0     7 -9999 -9999 -9999     0     0     0    23  2972
   Size 21-30:    36   180 14774     0 -9999     9 -9999 -9999 -9999     0
Seconds for overlays  1-5  :     0.000     0.000     0.000  -- (CP: Wait; Real)
Seconds for overlays  6-11 :     0.000     0.000     0.000
Seconds for overlays 12-15 :     0.000     0.000     0.000
Seconds for time-step loop :     0.000     0.000     0.000
Seconds after DELTAT-loop  :     0.000     0.000     0.000
                               ---------------------------
                   Totals  :     0.000     0.000     0.000

