   ---   55   cards of disk file read into card cache cells  1   onward.
 <===> Done with  "/"-card sorting by data class.    Remember that the source file appears different from interpreted input data.
Alternative Transients Program (ATP),  F77 GNU Linux or DOS.  All rights reserved by Can/Am user group of Portland, Oregon, USA.
 Date (dd-mth-yy) and time of day (hh.mm.ss) = 11-Nov-18  11.00.00    Name of disk plot file, if any, is
Consult the 860-page ATP Rule Book of the Can/Am EMTP User Group in Portland,  Oregon, USA.  Source code date is
Total size of LABCOM tables = 16446853 INTEGER words.  31 VARDIM  List Sizes follow:  6002  10K  192K  900  420K  1200  15K
  120K  2250  3800  720  2K  72800  510  800K  800  90  254  800K  100K  3K  15K  192K  120  45K  260K  600  210K  1100  19  200K
--------------------------------------------------+--------------------------------------------------------------------------------
Descriptive interpretation of input data cards.   |  Input data card images are shown below, all 80 columns, character by character
                                                  0         1         2         3         4         5         6         7         8
                                                  012345678901234567890123456789012345678901234567890123456789012345678901234567890
--------------------------------------------------+--------------------------------------------------------------------------------
Comment card.   KOMPAR > 0.                       |C data:Caso0_ReEnergizacao_OTIMIZADA_SemControle.atp
Marker card preceding new EMTP data case.         |BEGIN NEW DATA CASE
Comment card.   KOMPAR > 0.                       |C $DUMMY, XYZ000
Misc. data.     1.000E-06   1.000E+00   0.000E+00 |   1.E-6      1.
Misc. data.  500  1  0  0  1  0  0  1  300  0     |     500       1       0       0       1       0       0       1     300
Statistics data.      1    1    0    0    1    0  |       1       1       0       0       1      -1                               0
Series R-L-C.   5.000E+00  7.500E-02  0.000E+00   |  X0001AX0007A                5.   75.                                         0
Series R-L-C.   5.000E+00  7.500E-02  0.000E+00   |  X0001BX0007B                5.   75.                                         0
Series R-L-C.   5.000E+00  7.500E-02  0.000E+00   |  X0001CX0007C                5.   75.                                         0
Series R-L-C.   2.000E+02  0.000E+00  0.000E+00   |  X0007AX0001A              200.                                               0
Series R-L-C.   2.000E+02  0.000E+00  0.000E+00   |  X0007BX0001B              200.                                               0
Series R-L-C.   2.000E+02  0.000E+00  0.000E+00   |  X0007CX0001C              200.                                               0
Series R-L-C.   1.321E+00  1.401E+00  0.000E+00   |  X0003BXX0008            1.32071401.3                                         0
Series R-L-C.   1.321E+00  1.401E+00  0.000E+00   |  X0003AXX0008            1.32071401.3                                         0
Series R-L-C.   1.321E+00  1.401E+00  0.000E+00   |  X0003CXX0008            1.32071401.3                                         0
Series R-L-C.   3.900E-01  4.138E-01  0.000E+00   |  XX0008                     .39 413.8                                         0
Series R-L-C.   3.000E+01  0.000E+00  0.000E+00   |  XX0009                     30.                                               0
Series R-L-C.   1.000E+02  0.000E+00  0.000E+00   |  X0002AX0010A              100.                                               0
Series R-L-C.   1.000E+02  0.000E+00  0.000E+00   |  X0002BX0010B              100.                                               0
Series R-L-C.   1.000E+02  0.000E+00  0.000E+00   |  X0002CX0010C              100.                                               0
Dynamic $INCLUDE uses fixed RAM cache to delay.   |$INSERT, C:\SimulacaoATP\EXT1.pch
J. Marti line, mode  1   parameters begin.        |-1X0010AX0005C                2.  0.00              -2 3
J. Marti line, mode  2   parameters begin.        |-2X0010BX0005A                2.  0.00              -2 3
J. Marti line, mode  3   parameters begin.        |-3X0010CX0005B                2.  0.00              -2 3
TR(1,1 )...  0.671-0.707-0.324                    |  0.67102882 -0.70710678 -0.32400803
TI(1,1 )...  0.000 0.000 0.003                    |  0.00000000  0.00000000  0.00341127
TR(2,1 )...  0.315 0.000 0.889                    |  0.31480489  0.00000000  0.88876566
TI(2,1 )... -0.018 0.000 0.010                    | -0.01839933  0.00000000  0.01048452
TR(3,1 )...  0.671 0.707-0.324                    |  0.67102882  0.70710678 -0.32400803
TI(3,1 )...  0.000 0.000 0.003                    |  0.00000000  0.00000000  0.00341127
Dynamic $INCLUDE uses fixed RAM cache to delay.   |$INSERT, C:\SimulacaoATP\OTIM2.pch
J. Marti line, mode  1   parameters begin.        |-1X0004AX0006C                2.  0.00              -2 3
J. Marti line, mode  2   parameters begin.        |-2X0004BX0006A                2.  0.00              -2 3
J. Marti line, mode  3   parameters begin.        |-3X0004CX0006B                2.  0.00              -2 3
TR(1,1 )...  0.671-0.707-0.324                    |  0.67102882 -0.70710678 -0.32400803
TI(1,1 )...  0.000 0.000 0.003                    |  0.00000000  0.00000000  0.00341127
TR(2,1 )...  0.315 0.000 0.889                    |  0.31480489  0.00000000  0.88876566
TI(2,1 )... -0.018 0.000 0.010                    | -0.01839933  0.00000000  0.01048452
TR(3,1 )...  0.671 0.707-0.324                    |  0.67102882  0.70710678 -0.32400803
TI(3,1 )...  0.000 0.000 0.003                    |  0.00000000  0.00000000  0.00341127
Dynamic $INCLUDE uses fixed RAM cache to delay.   |$INSERT, C:\SimulacaoATP\OTIM3.pch
J. Marti line, mode  1   parameters begin.        |-1X0005AX0004C                2.  0.00              -2 3
J. Marti line, mode  2   parameters begin.        |-2X0005BX0004A                2.  0.00              -2 3
J. Marti line, mode  3   parameters begin.        |-3X0005CX0004B                2.  0.00              -2 3
TR(1,1 )...  0.671-0.707-0.324                    |  0.67102882 -0.70710678 -0.32400803
TI(1,1 )...  0.000 0.000 0.003                    |  0.00000000  0.00000000  0.00341127
TR(2,1 )...  0.315 0.000 0.889                    |  0.31480489  0.00000000  0.88876566
TI(2,1 )... -0.018 0.000 0.010                    | -0.01839933  0.00000000  0.01048452
TR(3,1 )...  0.671 0.707-0.324                    |  0.67102882  0.70710678 -0.32400803
TI(3,1 )...  0.000 0.000 0.003                    |  0.00000000  0.00000000  0.00341127
Dynamic $INCLUDE uses fixed RAM cache to delay.   |$INSERT, C:\SimulacaoATP\EXT4.pch
J. Marti line, mode  1   parameters begin.        |-1X0006AX0003A                2.  0.00              -2 3
J. Marti line, mode  2   parameters begin.        |-2X0006BX0003B                2.  0.00              -2 3
J. Marti line, mode  3   parameters begin.        |-3X0006CX0003C                2.  0.00              -2 3
TR(1,1 )...  0.671-0.707-0.324                    |  0.67102882 -0.70710678 -0.32400803
TI(1,1 )...  0.000 0.000 0.003                    |  0.00000000  0.00000000  0.00341127
TR(2,1 )...  0.315 0.000 0.889                    |  0.31480489  0.00000000  0.88876566
TI(2,1 )... -0.018 0.000 0.010                    | -0.01839933  0.00000000  0.01048452
TR(3,1 )...  0.671 0.707-0.324                    |  0.67102882  0.70710678 -0.32400803
TI(3,1 )...  0.000 0.000 0.003                    |  0.00000000  0.00000000  0.00341127
Blank card ending branches.  IBR, NTOT = 26  27   |BLANK BRANCH
Switch.   5.50E-02  1.00E-03  0.00E+00  3.33E+03  |  X0001BX0002B      .055      .001               3333.STATISTICS               0
Switch.   5.50E-02  1.00E-03  0.00E+00  3.33E+03  |  X0001AX0002A      .055      .001               3333.STATISTICS               0
Switch.   5.50E-02  1.00E-03  0.00E+00  3.33E+03  |  X0001CX0002C      .055      .001               3333.STATISTICS               0
Switch.   1.00E-02  1.00E-03  0.00E+00  0.00E+00  |  X0003CXX0009       .01      .001                    STATISTICS               1
Switch.   7.00E-01  1.00E-03  0.00E+00  0.00E+00  |  X0001BX0002B        .7      .001                    STATISTICS               0
Switch.   7.00E-01  1.00E-03  0.00E+00  0.00E+00  |  X0001AX0002A        .7      .001                    STATISTICS               0
Switch.   7.00E-01  1.00E-03  0.00E+00  0.00E+00  |  X0001CX0002C        .7      .001                    STATISTICS               0
Switch.   0.00E+00  6.98E-01  0.00E+00  0.00E+00  |  X0002AX0010A                .698                                             0
Switch.   0.00E+00  6.98E-01  0.00E+00  0.00E+00  |  X0002BX0010B                .698                                             0
Switch.   0.00E+00  6.98E-01  0.00E+00  0.00E+00  |  X0002CX0010C                .698                                             0
Switch.   7.10E-01  0.00E+00  0.00E+00  0.00E+00  |  X0002AX0010A       .71                                                       0
Switch.   7.10E-01  0.00E+00  0.00E+00  0.00E+00  |  X0002BX0010B       .71                                                       0
Switch.   7.10E-01  0.00E+00  0.00E+00  0.00E+00  |  X0002CX0010C       .71                                                       0
Blank card ending switches.   KSWTCH = 13.        |BLANK SWITCH
Source.   4.29E+05  6.00E+01  0.00E+00 -1.00E+00  |14X0007A  428660.705       60.                                     -1.      100.
Source.   4.29E+05  6.00E+01 -1.20E+02 -1.00E+00  |14X0007B  428660.705       60.     -120.                           -1.      100.
Source.   4.29E+05  6.00E+01 -2.40E+02 -1.00E+00  |14X0007C  428660.705       60.     -240.                           -1.      100.
Blank card ends electric sources.  KCONST = 3     |BLANK SOURCE

     Total network loss  P-loss  by summing injections =   1.090271314090E+08

Card of names for time-step loop output.          |  X0003AX0003BX0003C
Output voltage differences for pairs of A6 names  |-5X0003BX0003CX0003AX0003BX0003CX0003A
Blank card ending requests for output variables.  |BLANK OUTPUT

Column headings for the  7   EMTP output variables follow.  These are divided among the 5 possible classes as follows ....
  First  6     output variables are electric-network voltage differences (upper voltage minus lower voltage);
  Next   1     output variables are branch currents (flowing from the upper node to the lower node);
   Step      Time      X0003A     X0003B     X0003C     X0003B     X0003A     X0003C     X0003C
                                                        X0003C     X0003B     X0003A     XX0009
 ***      Phasor I(0) =  6.2149258E+02                     Switch  "X0001B"  to  "X0002B"  closed in the steady-state.
 ***      Phasor I(0) =  1.7070730E+02                     Switch  "X0001A"  to  "X0002A"  closed in the steady-state.
 ***      Phasor I(0) = -7.9568127E+02                     Switch  "X0001C"  to  "X0002C"  closed in the steady-state.
 ***                    Switch  "X0002A"  to  "X0010A"  closed  after  0.00000000E+00  sec.
 ***                    Switch  "X0002B"  to  "X0010B"  closed  after  0.00000000E+00  sec.
 ***                    Switch  "X0002C"  to  "X0010C"  closed  after  0.00000000E+00  sec.
      0       0.0  435146.843 -295649.49  -132942.4 -162707.09 730796.334 -568089.25        0.0
    500     .5E-3  442795.553 -228301.75 -208820.33 -19481.423 671097.306 -651615.88        0.0
   1000     .1E-2   436982.01 -153516.29 -277045.06 123528.768 590498.302 -714027.07        0.0
   1500     .0015  415348.523 -72841.813 -335522.52 262680.708 488190.336 -750871.04        0.0
   2000      .002  383237.825 79981.0706 -479987.29 559968.364 303256.754 -863225.12        0.0
   2500     .0025  322500.401   199326.6 -516099.89 715426.492 123173.801 -838600.29        0.0
   3000      .003  242798.627 292444.684 -528126.91 820571.598 -49646.057 -770925.54        0.0
   3500     .0035  150057.946  366487.06 -511075.47 877562.532 -216429.11 -661133.42        0.0
   4000      .004   53652.422 428644.403 -469213.84 897858.244 -374991.98 -522866.26        0.0
   4500     .0045  -42648.894 473556.927 -414467.94 888024.866 -516205.82 -371819.05        0.0
   5000      .005  -140484.75 499172.083  -346714.8 845886.878 -639656.83 -206230.05        0.0
   5500     .0055  -239298.91 487493.311  -242365.7 729859.015 -726792.23 -3066.7896        0.0
   6000      .006  -317618.46 451093.009 -127055.88 578148.886 -768711.47 190562.584        0.0
   6500     .0065  -377440.66 405705.914 -22023.683 427729.597 -783146.57 355416.974        0.0
   7000      .007  -421044.09  353620.04 69457.4965 284162.544 -774664.13 490501.583        0.0
   7500     .0075  -446695.44 295906.672 146379.267 149527.405 -742602.11 593074.706        0.0
   8000      .008  -456481.37 230991.254 214096.105 16895.1492 -687472.62 670577.471        0.0
   8500     .0085  -452057.01 159909.662 274317.357  -114407.7 -611966.67 726374.363        0.0
   9000      .009  -427684.39 88296.7265 320609.253 -232312.53 -515981.11 748293.638        0.0
   9500     .0095   -389833.8 23201.3147 348795.945 -325594.63 -413035.12 738629.748        0.0
  10000       .01  -344034.72 -40129.742 367397.878 -407527.62 -303904.98 711432.599        0.0
 ***                                                             Close switch  "X0003C"  to  "XX0009"  after  1.00010000E-02  sec.
  10500     .0105  -404324.49 -217454.05 39106.9616 -256561.01 -186870.44 443431.454 1303.56539
  11000      .011  -347390.08 -288621.23 41769.7118 -330390.94 -58768.846 389159.789 1392.32373
  11500     .0115  -279537.22 -357296.87 44136.4142 -401433.28 77759.6475 323673.635 1471.21381
  12000      .012  -210745.36 -427819.94 47746.1836 -475566.12 217074.576 258491.546 1591.53945
  12500     .0125  -128431.98 -472987.18 48880.0904 -521867.27   344555.2 177312.075 1629.33635
  13000      .013   -27250.78  -504786.4 47394.7849 -552181.18 477535.618  74645.565 1579.82616
  13500     .0135  32114.1871 -529972.27 45191.4674 -575163.73 562086.455 13077.2803 1506.38225
  14000      .014  38934.3486 -624766.72 54592.1235 -679358.84 663701.067 15657.7749 1819.73745
  14500     .0145  169365.669 -580742.45 64563.1509 -645305.61 750108.124 -104802.52 2152.10503
  15000      .015   296888.67 -496020.53 69901.5364 -565922.06 792909.199 -226987.13 2330.05121
  15500     .0155  390826.116 -407211.89 67019.2721 -474231.16 798038.003 -323806.84 2233.97574
  16000      .016  466018.105 -313069.82 59812.5252 -372882.35  779087.93 -406205.58 1993.75084
  16500     .0165  527673.115 -205070.69 50307.8241 -255378.52 732743.809 -477365.29 1676.92747
  17000      .017   576392.39  -83434.47 37622.5856 -121057.06 659826.861  -538769.8 1254.08619
  17500     .0175    605596.5 43266.3426 22073.6979 21192.6446 562330.158  -583522.8 735.789932
  18000      .018  598205.111  166888.35 9939.62884 156948.721 431316.761 -588265.48 331.320961
  18500     .0185  566834.772 282464.036 3851.79667 278612.239 284370.736 -562982.98 128.393222
  19000      .019   511781.62  376412.68 -2802.1036 379214.784  135368.94 -514583.72 -93.403453
  19500     .0195  439166.735 453282.854 -10827.742 464110.596 -14116.119 -449994.48 -360.92474
  20000       .02  348686.849 511659.764 -19587.535 531247.299 -162972.92 -368274.38 -652.91784
  20500     .0205  245643.322 550468.621  -28310.93 578779.551  -304825.3 -273954.25 -943.69765
  21000      .021  135893.598 570800.009 -36913.812  607713.82 -434906.41 -172807.41 -1230.4604
  21500     .0215  20270.4277 567045.886 -45250.742 612296.628 -546775.46  -65521.17 -1508.3581
  22000      .022  -101452.78 534483.339 -51388.769 585872.109 -635936.12 50064.0066  -1712.959
  22500     .0225  -214938.83 487121.297 -54145.061 541266.357 -702060.13  160793.77 -1804.8354
  23000      .023  -311368.45 434999.962  -53473.68 488473.643 -746368.41 257894.767  -1782.456
  23500     .0235  -390949.91 376158.861 -50334.528  426493.39 -767108.77 340615.378 -1677.8176
  24000      .024  -454994.91 307444.236 -45435.446 352879.682 -762439.14 409559.461 -1514.5149
  24500     .0245  -502689.12 228776.944 -39088.203 267865.146 -731466.06 463600.918 -1302.9401
  25000      .025  -531734.04 143278.822 -31734.088 175012.909 -675012.86 499999.953 -1057.8029
  25500     .0255  -542222.23 53715.1278 -23925.518 77640.6462 -595937.36  518296.71 -797.51728
  26000      .026  -536130.15 -38944.124 -15457.614  -23486.51 -497186.03 520672.535  -515.2538
  26500     .0265  -514332.07 -133605.32 -5764.0152  -127841.3 -380726.75 508568.055 -192.13384
  27000      .027  -477726.94 -228577.93 4982.50836 -233560.43 -249149.01 482709.446 166.083612
  27500     .0275  -426707.02 -319965.84 16093.0841 -336058.92 -106741.18 442800.102 536.436137
  28000      .028  -361953.47  -402996.3 26884.6824 -429880.99 41042.8308 388838.155 896.156079
  28500     .0285  -284820.35 -473125.58 36829.1262 -509954.71 188305.231 321649.476 1227.63754
  29000      .029  -196791.08  -526489.9 45427.5001  -571917.4 329698.822 242218.578    1514.25
  29500     .0295  -100543.83 -560733.18 52180.8274   -612914. 460189.342 152724.662 1739.36091
  30000       .03  -61.509434 -574754.65 56844.9762 -631599.62 574693.136 56906.4856 1894.83254
  30500     .0305  101334.774 -567101.95 59463.1903 -626565.14 668436.719 -41871.584 1982.10634
  31000      .031  201171.845 -536317.99 60195.0124   -596513. 737489.833 -140976.83 2006.50041
  31500     .0315  296436.247 -482662.56 59146.6094 -541809.17 779098.812 -237289.64 1971.55365
  32000      .032  383239.176 -408682.35 56348.3531  -465030.7 791921.527 -326890.82 1878.27844
  32500     .0325  457544.558  -318332.8 51838.4195 -370171.22 775877.357 -405706.14 1727.94732
  33000      .033  516002.918 -215911.61  45678.046 -261589.66 731914.531 -470324.87 1522.60153
  33500     .0335  556076.147 -105866.28 37943.4887 -143809.77 661942.426 -518132.66 1264.78296
  34000      .034  575835.755 7039.71399 28822.1863 -21782.472 568796.041 -547013.57 960.739543
  34500     .0345  574008.082 117903.186   18676.28 99226.9055 456104.896  -555331.8 622.542667
  35000      .035  550207.512 222073.314 7960.33497 214112.979 328134.198 -542247.18 265.344499
  35500     .0355   505211.98 315665.264 -2885.8929 318551.156 189546.717 -508097.87 -96.196429
  36000      .036  440958.427 395806.318 -13466.468 409272.786 45152.1088 -454424.89 -448.88226
  36500     .0365  360313.188 460521.585 -23415.181 483936.767  -100208.4 -383728.37 -780.50604
  37000      .037  266816.274   508533.1 -32401.615 540934.714 -241716.83 -299217.89 -1080.0538
  37500     .0375  164337.791  539028.92 -40155.141 579184.062 -374691.13 -204492.93 -1338.5047
  38000      .038  56812.0173 551523.502 -46457.848  597981.35 -494711.48 -103269.87 -1548.5949
  38500     .0385    -51782.2 545953.478 -51115.715 597069.193 -597735.68  666.48458 -1703.8572
  39000      .039  -157427.66  522804.34 -53948.559 576752.899   -680232. 103479.104 -1798.2853
  39500     .0395   -256268.9 483021.016 -54811.826 537832.842 -739289.91 201457.071 -1827.0609
  40000       .04  -344894.09 427813.446 -53629.457 481442.903 -772707.54 291264.636 -1787.6486
  40500     .0405   -420479.7 358603.045 -50412.387 409015.432 -779082.75 370067.317 -1680.4129
  41000      .041  -480754.56 277148.417 -45264.741 322413.158 -757902.97 435489.816 -1508.8247
  41500     .0415  -523950.74 185675.875 -38384.079 224059.954 -709626.61 485566.661 -1279.4693
  42000      .042  -548844.96 86891.5268 -30046.378 116937.904 -635736.49 518798.581 -1001.5459
  % % % % % %   Suspended simulation;  plot data space exhausted;  SPY SPACE is required.   LIMBUF =  340000.
  % % % % % %   Suspended simulation;  plot data space exhausted;  SPY SPACE is required.   LIMBUF =  340000.
  +++  Time-sharing disabled.   Send  user-keyed interrupt to silence alarm.
   Current values.  INDBUF  INDBEG  LIMBUF  MFLUSH  NUMDCD  KCARD1  KCARD2
                    339994      50  340000    1000      46       1      50
Plot timespan now in memory (in sec) = 0.00000000E+00   4.24930000E-02
   ++++  Begin plot-data copy from memory to disk.   MFLUSH, INDBUF, N4, Tbeg,  Tend = 1001  339994       1  -1.00000E+00
1.00000E+19
  42500     .0425   -554825.9 -16102.049 -20577.462 4475.41264 -538723.85 534248.435  -685.9154
  43000      .043  -541904.18 -119906.18 -10328.923 -109577.26   -421998. 531575.256 -344.29743
  43500     .0435  -510652.61 -220899.55 332.757812  -221232.3 -289753.06 510985.364 11.0919271
  44000      .044  -462133.35  -315321.9 11032.5255 -326354.43 -146811.44 473165.873 367.750851
  44500     .0445   -397863.7 -399423.86  21396.915 -420820.78 1560.15998 419260.616 713.230501
  45000      .045  -319813.54 -469683.22 31065.4963 -500748.72 149869.684 350879.033 1035.51654
  45500     .0455   -230408.3 -523052.53  39699.105 -562751.64 292644.233 270107.406  1323.3035
  46000      .046  -132511.16 -557182.38 46988.1147  -604170.5 424671.221 179499.274 1566.27049
  46500     .0465  -29359.882 -570566.98 52665.3793 -623232.36 541207.101 82025.2616 1755.51264
  47000      .047  75539.6712 -562604.34 56522.0446 -619126.38  638144.01 -19017.627 1884.06815
  47500     .0475   178534.58 -533605.34  58420.029 -592025.37 712139.924 -120114.55  1947.3343
  48000      .048  275942.316 -484776.16 58297.3069 -543073.47  760718.48 -217645.01 1943.24356
  48500     .0485  364177.303 -418159.36   56167.18 -474326.54 782336.663 -308010.12 1872.23933
  49000      .049  439902.463 -336510.87 52113.9691 -388624.84 776413.331 -387788.49  1737.1323
  49500     .0495  500192.938 -243123.68 46286.3333 -289410.01 743316.617  -453906.6 1542.87778
  50000       .05  542682.058  -141637.7  38889.748 -180527.45 684319.762 -503792.31 1296.32493
  50500     .0505  565671.162 -35867.776 30179.7308 -66047.507 601538.937 -535491.43 1005.99103
  51000      .051  568204.146 70344.3032 20455.4779 49888.8252 497859.843 -547748.67 681.849265
  51500     .0515  550114.158 173263.273 10052.1056 163211.167 376850.885 -540062.05 335.070185
  52000      .052  512041.376 269383.609 -669.39861 270053.008 242657.767 -512710.77 -22.313287
  52500     .0525  455413.105 355534.255 -11333.917 366868.172   99878.85 -466747.02 -377.79723
  53000      .053  382381.271 428955.236 -21565.021 450520.257 -46573.965 -403946.29 -718.83405
  53500     .0535  295720.855 487345.689 -30998.851 518344.539 -191624.83 -326719.71  -1033.295
  54000      .054  198699.048 528893.061 -39298.568 568191.629 -330194.01 -237997.62 -1309.9523
  54500     .0545  94928.2176 552297.032 -46167.949 598464.981 -457368.81 -141096.17 -1538.9316
  55000      .055  -11785.479 556796.351  -51362.58 608158.931 -568581.83   -39577.1  -1712.086
  55500     .0555  -117590.85 542196.694 -54698.164 596894.858 -659787.55 62892.6902 -1823.2721
 ***                                                             Open  switch  "X0001B"  to  "X0002B"  after  5.59140000E-02  sec.
  56000      .056  -218734.31 508891.744 -56056.337  564948.08 -727626.05 162677.973 -1868.5446
  56500     .0565  -311691.87 457871.881 -55388.424 513260.305 -769563.75 256303.443 -1846.2808
  57000      .057  -393284.12 390719.517 -52717.213  443436.73 -784003.64 340566.908 -1757.2404
  57500     .0575   -460769.5 309589.719 -48136.585 357726.304 -770359.22 412632.916 -1604.5528
  58000      .058   -522948.5 249642.155 -43287.016 292929.172 -772590.65 479661.482 -1442.9005
  58500     .0585  -556528.16 205359.182 -35806.854 241166.036 -761887.35 520721.311 -1193.5618
  59000      .059  -569047.67 156387.608 -26740.029 183127.636 -725435.28 542307.644 -891.33429
 ***                                                             Open  switch  "X0001A"  to  "X0002A"  after  5.92450000E-02  sec.
  59500     .0595  -563363.25 98478.9822 -16737.045 115216.028 -661842.24 546626.209 -557.90151
 ***                                                             Open  switch  "X0001C"  to  "X0002C"  after  5.99540000E-02  sec.
  60000       .06  -539588.87 32719.5439 -6161.3099 38880.8537 -572308.41 533427.559   -205.377
  60500     .0605  -496802.57 -38641.729 4664.26673 -43305.995 -458160.84 501466.837 155.475558
  61000      .061  -441348.65 -112597.96 15669.4035 -128267.36 -328750.69 457018.053 522.313449
  61500     .0615   -428513.9  -166235.8 27038.0388 -193273.84  -262278.1  455551.94 901.267961
  62000      .062  -362475.18 -181585.73  30656.896 -212242.63 -180889.45 393132.077 1021.89653
  62500     .0625  -297377.78 -210252.61 27960.3031 -238212.91 -87125.179 325338.087 932.010104
  63000      .063  -231517.07 -253160.25 23197.4577  -276357.7 21643.1797 254714.525 773.248589
  63500     .0635  -153819.25 -298300.63 17485.2971 -315785.93 144481.388 171304.542 582.843236
  64000      .064  -64234.347  -341347.9 10859.5652 -352207.47 277113.558 75093.9118 361.985507
  64500     .0645  15733.6678 -377158.61 3782.24978 -380940.86 392892.278 -11951.418 126.074993
  65000      .065   67253.215 -390556.11 -3036.5866 -387519.53 457809.327 -70289.802 -101.21955
  65500     .0655  120552.846 -403424.15 -10522.673 -392901.48 523976.998 -131075.52 -350.75578
  66000      .066  154912.516 -435144.36 -14045.724 -421098.64 590056.876 -168958.24 -468.19079
  66500     .0665  215857.473 -447200.84  -13308.53 -433892.31 663058.312   -229166. -443.61768
  67000      .067  282515.813 -452834.93 -11464.203 -441370.73 735350.745 -293980.02  -382.1401
  67500     .0675  347626.445 -457170.45 -8708.8974 -448461.56   804796.9 -356335.34 -290.29658
  68000      .068  388670.313 -445417.24 -4644.0704 -440773.17 834087.556 -393314.38 -154.80235
  68500     .0685  411747.955 -409644.86 99.7074488 -409744.56 821392.812 -411648.25 3.32358163
  69000      .069  427273.016 -375018.85 5299.91186 -380318.76 802291.861  -421973.1 176.663729
  69500     .0695  452261.976 -332735.71 9665.77821 -342401.49 784997.685  -442596.2 322.192607
  70000       .07   485396.23 -283024.61 10927.8554 -293952.46 768420.835 -474468.37 364.261847
  70500     .0705  506975.654 -237948.91 10665.7228 -248614.63 744924.564 -496309.93 355.524092
  71000      .071   521140.59 -196090.12 10124.0637 -206214.19 717230.712 -511016.53  337.46879
  71500     .0715  508560.637 -131466.51 8845.20658 -140311.72 640027.148 -499715.43 294.840219
  72000      .072  481783.085 -58431.698 6369.86241  -64801.56 540214.783 -475413.22 212.328747
  72500     .0725  446897.511 8625.38209 3349.38299  5275.9991 438272.129 -443548.13   111.6461
  73000      .073  416997.059 69588.4245 -214.30945 69802.7339 347408.634 -417211.37 -7.1436483
  73500     .0735  374568.781 114437.004 -3180.2046 117617.208 260131.777 -377748.99 -106.00682
  74000      .074   332956.35 157736.044 -4386.9523 162122.996 175220.306  -337343.3 -146.23174
  74500     .0745  290291.469 200270.676 -4460.0839  204730.76 90020.7928 -294751.55 -148.66946
  75000      .075   221736.38 257023.162 -4248.3636 261271.526 -35286.782 -225984.74 -141.61212
  75500     .0755  145718.487 308595.385 -3567.8397 312163.225  -162876.9 -149286.33 -118.92799
  76000      .076  73509.2518 351230.352 -2124.6851 353355.037  -277721.1 -75633.937 -70.822837
  76500     .0765  9495.22007 381271.326 -161.27419   381432.6 -371776.11 -9656.4943 -5.3758063
  77000      .077  -51195.586 399982.061 2269.07581 397712.985 -451177.65  53464.662 75.6358602
  77500     .0775  -101394.07 415316.377 3932.27909 411384.098 -516710.45 105326.348  131.07597
  78000      .078  -155132.12 424408.879 4873.05451 419535.824   -579541. 160005.178  162.43515
  78500     .0785  -225904.58 440566.131 5474.61747 435091.513 -666470.71 231379.194 182.487249
  79000      .079  -289854.94 448395.527 5655.62715   442739.9 -738250.47  295510.57 188.520905
  79500     .0795  -339518.91 445805.222 5227.73366 440577.489 -785324.13 344746.643 174.257789
  80000       .08  -378111.68 428079.372 4392.13735 423687.234 -806191.05 382503.817 146.404578
  80500     .0805  -405746.67 400295.559 3202.82609 397092.733 -806042.23 408949.498  106.76087
  81000      .081  -427311.69 360795.075 1898.76735 358896.307 -788106.76 429210.454 63.2922449
  81500     .0815  -451465.55  320046.53 1074.48624 318972.044 -771512.08 452540.035 35.8162081
  82000      .082  -478625.95 287031.476 582.729843 286448.746 -765657.43 479208.684 19.4243281
  82500     .0825  -492476.65 247757.606 42.4274854 247715.179 -740234.26 492519.079 1.41424951
  83000      .083  -491166.45 198072.635 -315.10406 198387.739 -689239.09 490851.347 -10.503469
  83500     .0835  -477102.14 139213.673 -144.34994 139358.023 -616315.82 476957.794 -4.8116647
  84000      .084   -451175.2  76595.919 379.463519 76216.4555 -527771.12 451554.665  12.648784
  84500     .0845   -418505.1  9645.3437 1356.39916 8288.94454 -428150.44   419861.5 45.2133055
  % % % % % %   Suspended simulation;  plot data space exhausted;  SPY SPACE is required.   LIMBUF =  340000.
  % % % % % %   Suspended simulation;  plot data space exhausted;  SPY SPACE is required.   LIMBUF =  340000.
  +++  Time-sharing disabled.   Send  user-keyed interrupt to silence alarm.
   Current values.  INDBUF  INDBEG  LIMBUF  MFLUSH  NUMDCD  KCARD1  KCARD2
                    339994      50  340000    1001      46       1      50
Plot timespan now in memory (in sec) = 4.24919985E-02   8.49850000E-02
   ++++  Begin plot-data copy from memory to disk.   MFLUSH, INDBUF, N4, Tbeg,  Tend = 1002  339994       1  -1.00000E+00
1.00000E+19
  85000      .085  -388335.34 -46353.831 2322.64509 -48676.476 -341981.51 390657.987 77.4215029
  85500     .0855  -358179.38 -93767.887 2829.70882 -96597.596 -264411.49 361009.086 94.3236274
  86000      .086  -317896.49 -143130.84 3048.30686 -146179.15 -174765.65 320944.796 101.610229
  86500     .0865  -264845.66  -195650.5  3293.2874 -198943.78 -69195.169 268138.952 109.776247
  87000      .087  -201932.04 -247665.76 3421.60682 -251087.36  45733.713 205353.649 114.053561
  87500     .0875  -134275.78 -296931.72 3295.06216 -300226.78 162655.938 137570.843 109.835405
  88000      .088  -65787.524 -342354.48 3078.43602 -345432.91 276566.952 68865.9602 102.614534
  88500     .0885  -9657.1599 -371869.64 2612.83421 -374482.48 362212.484 12269.9941 87.0944737
  89000      .089   42302.685  -392797.8 1979.20492 -394777.01 435100.489  -40323.48 65.9734973
  89500     .0895  98990.1333 -410487.32 1390.08754 -411877.41 509477.452 -97600.046 46.3362512
  90000       .09  161701.708 -425612.81 905.167712 -426517.97 587314.515 -160796.54 30.1722571
  90500     .0905  224686.325  -436495.2 478.877479 -436974.08 661181.525 -224207.45 15.9625826
  91000      .091   283182.37 -441701.29 274.304308  -441975.6 724883.662 -282908.07 9.14347692
  91500     .0915  334285.051 -438218.78 357.725308  -438576.5 772503.828 -333927.33 11.9241769
  92000      .092  366653.728 -417803.16 558.442697 -418361.61 784456.891 -366095.29 18.6147566
  92500     .0925  393140.759 -389615.24 715.987387 -390331.22 782755.994 -392424.77 23.8662462
  93000      .093  419342.778 -358530.87 785.327065  -359316.2 777873.647 -418557.45 26.1775688
  93500     .0935  444232.239 -325791.62 852.857799 -326644.48 770023.858 -443379.38 28.4285933
  94000      .094  463369.771 -289736.54 1002.57611 -290739.11 753106.309 -462367.19 33.4192036
  94500     .0945  474628.766 -249028.56  1237.7332  -250266.3 723657.331 -473391.03 41.2577734
  95000      .095  473170.947 -200609.27 1428.40414 -202037.68 673780.221 -471742.54 47.6134715
  95500     .0955  453451.624 -141065.45 1455.90105 -142521.35 594517.071 -451995.72 48.5300349
  96000      .096  428337.259 -80576.286 1244.87924 -81821.165 508913.546 -427092.38 41.4959745
  96500     .0965  401846.959 -23636.989 960.430926  -24597.42 425483.948 -400886.53 32.0143642
  97000      .097  372985.265 29821.5379 749.156661 29072.3813 343163.727 -372236.11 24.9718887
  97500     .0975  339388.966 81941.2558 605.496872 81335.7589  257447.71 -338783.47 20.1832291
  98000      .098   299610.59 132680.542  523.09217  132157.45 166930.047  -299087.5 17.4364057
  98500     .0985  247486.696 185758.352 498.428162 185259.924 61728.3444 -246988.27 16.6142721
  99000      .099  184714.018 241300.687 474.539701 240826.147 -56586.669 -184239.48   15.81799
  99500     .0995  122387.853 290043.767 424.231879 289619.535 -167655.91 -121963.62 14.1410626
 100000       0.1   64274.027 329290.578 459.960477 328830.617 -265016.55 -63814.066 15.3320159
 100500     .1005  8791.05416 360134.727 577.524568 359557.202 -351343.67 -8213.5296 19.2508189
 101000      .101  -46089.445 384694.092 721.689274 383972.403 -430783.54 46811.1347 24.0563091
 101500     .1015  -101354.27 403004.709 951.916879 402052.792 -504358.98 102306.192 31.7305626
 102000      .102  -162682.64  420680.16 1217.76193 419462.398  -583362.8 163900.406 40.5920643
 102500     .1025  -224004.59 434800.597 1366.87041 433433.727 -658805.19 225371.461  45.562347
 103000      .103  -277121.44 438223.566 1402.62048 436820.945 -715345.01 278524.064  46.754016
 103500     .1035  -319671.45 430022.273 1425.18157 428597.091 -749693.72 321096.633 47.5060525
 104000      .104  -354359.56 412280.032 1453.27287 410826.759 -766639.59 355812.833 48.4424292
 104500     .1045  -383257.93 387684.417 1490.92003 386193.497 -770942.35 384748.854 49.6973342
 105000      .105   -407509.1 357769.179 1577.05078 356192.128 -765278.28  409086.15 52.5683595
 105500     .1055  -432303.17  328334.24 1615.68043  326718.56 -760637.41 433918.846 53.8560142
 106000      .106  -450378.16 294550.051 1531.39614 293018.655 -744928.22  451909.56  51.046538
 106500     .1065  -456011.09 252057.221 1421.36099  250635.86 -708068.31 457432.447 47.3786997
 107000      .107  -449063.94 201638.633 1375.35308  200263.28 -650702.58 450439.296 45.8451028
 107500     .1075  -433084.01 146413.157 1392.15768    145021. -579497.16 434476.165  46.405256
 108000      .108  -410596.59 89227.7683 1454.46194 87773.3064 -499824.36 412051.053 48.4820648
 108500     .1085  -384165.67 32780.4823 1546.63515 31233.8472 -416946.15 385712.301 51.5545051
 109000      .109  -357787.09 -18490.289 1587.09118  -20077.38  -339296.8 359374.181 52.9030394
 109500     .1095  -324259.94 -69835.506 1546.78539 -71382.291 -254424.43 325806.724 51.5595131
 110000       .11  -280096.21 -123560.81 1495.84151 -125056.65  -156535.4 281592.054 49.8613835
 110500     .1105  -227576.22 -178173.35 1476.94519 -179650.29 -49402.869 229053.164 49.2315065
 111000      .111  -170792.03 -230384.31 1472.66088 -231856.97 59592.2835 172264.687  49.088696
 111500     .1115  -112574.94 -278087.37 1482.62413 -279569.99  165512.43 114057.564 49.4208044
 112000      .112  -56771.579 -318005.25 1486.13819 -319491.39 261233.669 58257.7169 49.5379398
 112500     .1125  -4962.9979  -348155.5  1415.9393 -349571.44 343192.498  6378.9372 47.1979768
 113000      .113  49238.1414 -373865.52 1257.30072 -375122.83 423103.666 -47980.841  41.910024
 113500     .1135  107400.661 -396810.58 1090.21105 -397900.79 504211.238 -106310.45 36.3403684
 114000      .114  166061.932 -415453.57 972.732669  -416426.3 581515.501  -165089.2 32.4244223
 114500     .1145  221444.252  -427099.4 893.748822 -427993.15 648543.654  -220550.5 29.7916274
 115000      .115  271231.529 -430763.15 860.106551 -431623.26 701994.679 -270371.42 28.6702184
 115500     .1155  311368.396 -423466.77 830.421649 -424297.19 734835.161 -310537.97 27.6807216
 116000      .116  343198.907 -406194.71  737.41374 -406932.12 749393.616 -342461.49  24.580458
 116500     .1165   372274.29 -384343.19 592.675389 -384935.86 756617.477 -371681.61 19.7558463
 117000      .117  399294.832 -359362.34 484.631166 -359846.97 758657.167  -398810.2 16.1543722
 117500     .1175  421073.611 -329959.67 443.281169 -330402.95 751033.278 -420630.33  14.776039
 118000      .118  434749.427 -294538.27 437.232037  -294975.5 729287.694 -434312.19 14.5744012
 118500     .1185   438990.32 -253105.48 464.415062 -253569.89 692095.796 -438525.91 15.4805021
 119000      .119  430755.589 -203592.26 475.099693 -204067.36 634347.851 -430280.49 15.8366564
 119500     .1195  414075.707 -149374.36 417.010529 -149791.37  563450.07  -413658.7  13.900351
 120000       .12  394019.648 -95420.703 327.079942 -95747.783 489440.351 -393692.57 10.9026647
 120500     .1205  371010.861 -42795.395 277.415385  -43072.81 413806.256 -370733.45  9.2471795
 121000      .121   342623.03 9572.32653 273.954858 9298.37168 333050.704 -342349.08  9.1318286
 121500     .1215  307163.918 62438.5501 300.042757 62138.5073 244725.368 -306863.88 10.0014252
 122000      .122  264216.176 115659.469 355.771873 115303.697 148556.707  -263860.4 11.8590624
 122500     .1225  212496.618 170428.519 391.012558 170037.507 42068.0983 -212105.61 13.0337519
 123000      .123  157685.027 222305.808 369.098684 221936.709 -64620.781 -157315.93 12.3032895
 123500     .1235  104216.339 267451.053 339.584897 267111.468 -163234.71 -103876.75 11.3194966
 124000      .124  52058.4601 305662.347 357.394454 305304.953 -253603.89 -51701.066 11.9131485
 124500     .1245  -641.27929 338328.533 418.499106 337910.034 -338969.81  1059.7784 13.9499702
 125000      .125  -54638.739 366136.652 513.282527  365623.37 -420775.39 55152.0213 17.1094176
 125500     .1255  -110201.06 389666.338 623.919229 389042.419  -499867.4 110824.981 20.7973076
 126000      .126   -167033.3  409497.35  697.25495 408800.095 -576530.65 167730.555 23.2418317
 126500     .1265  -219313.46 421461.606 714.674513 420746.932 -640775.06 220028.131 23.8224838
 127000      .127   -263852.4 423409.171 732.240084 422676.931 -687261.57 264584.642 24.4080028
  % % % % % %   Suspended simulation;  plot data space exhausted;  SPY SPACE is required.   LIMBUF =  340000.
  % % % % % %   Suspended simulation;  plot data space exhausted;  SPY SPACE is required.   LIMBUF =  340000.
  +++  Time-sharing disabled.   Send  user-keyed interrupt to silence alarm.
   Current values.  INDBUF  INDBEG  LIMBUF  MFLUSH  NUMDCD  KCARD1  KCARD2
                    339994      50  340000    1002      46       1      50
Plot timespan now in memory (in sec) = 8.49839970E-02   1.27477000E-01
   ++++  Begin plot-data copy from memory to disk.   MFLUSH, INDBUF, N4, Tbeg,  Tend = 1003  339994       1  -1.00000E+00
1.00000E+19
 127500     .1275  -301611.61 416391.979 789.085474 415602.894 -718003.59   302400.7 26.3028491
 128000      .128   -334467.5 402530.715  870.43049 401660.284 -736998.22 335337.934 29.0143497
 128500     .1285  -363010.64 382901.953 966.497955 381935.455 -745912.59 363977.134 32.2165985
 129000      .129  -388173.32 359084.616 1052.90172 358031.714 -747257.94 389226.223  35.096724
 129500     .1295  -408713.87 331255.163 1088.02087 330167.142 -739969.03 409801.889 36.2673624
 130000       .13   -419896.7 296261.333 1075.10676 295186.226 -716158.04 420971.811 35.8368919
 130500     .1305   -420342.7 253642.282 1070.38855 252571.894 -673984.98 421413.087 35.6796184
 131000      .131  -412229.93 205544.582 1098.49448 204446.087 -617774.51 413328.423 36.6164826
 131500     .1315  -397926.19 154603.363 1140.04395 153463.319 -552529.55 399066.231 38.0014649
 132000      .132  -378440.48 102214.697 1188.31378 101026.383 -480655.18 379628.796 39.6104592
 132500     .1325  -355482.52 50543.9598 1217.31329 49326.6465 -406026.48 356699.835 40.5771097
 133000      .133  -327397.39 -806.79993 1193.30759 -2000.1075 -326590.59 328590.698 39.7769196
 133500     .1335    -291039.  -54077.35 1134.10669 -55211.457 -236961.65 292173.106 37.8035562
 134000      .134  -246838.72 -108677.88 1091.00984 -109768.89 -138160.84 247929.727 36.3669948
 134500     .1345  -197900.68 -162072.81 1075.85849 -163148.67 -35827.873 198976.541 35.8619496
 135000      .135  -146918.24 -211837.82 1069.12909 -212906.95 64919.5736 147987.372 35.6376363
 135500     .1355  -95286.449 -256733.62 1063.11077 -257796.73 161447.166 96349.5597 35.4370258
 136000      .136  -44865.399 -294966.86 1029.12311 -295995.99 250101.464 45894.5221 34.3041038
 136500     .1365  6295.01116 -327915.69 943.805673  -328859.5 334210.705 -5351.2055 31.4601891
 137000      .137  60094.1721 -357463.96 839.567858 -358303.53 417558.132 -59254.604 27.9855953
 137500     .1375  114989.885 -382812.24 761.890515 -383574.13 497802.124 -114227.99 25.3963505
 138000      .138   167755.49  -401857.5 711.556238 -402569.05 569612.988 -167043.93 23.7185413
 138500     .1385  216070.006 -413130.37 671.675344 -413802.05 629200.376 -215398.33 22.3891781
 139000      .139   258672.71 -416045.82 632.146492 -416677.96 674718.526 -258040.56 21.0715497
 139500     .1395  294533.837 -410012.72 565.606387 -410578.33  704546.56 -293968.23 18.8535462
 140000       .14  326150.158 -397531.73 462.012561 -397993.74 723681.885 -325688.14 15.4004187
 140500     .1405   354913.85 -380524.01 361.204545 -380885.21 735437.858 -354552.65 12.0401515
 141000      .141   379108.67 -358513.73  297.71408 -358811.44 737622.396 -378810.96 9.92380266
 141500     .1415  396214.941 -330250.32 262.653935 -330512.98 726465.263 -395952.29 8.75513117
 142000      .142  404979.108 -295440.43 242.116558 -295682.54 700419.536 -404736.99 8.07055192
 142500     .1425  404825.466 -254220.02 222.407005 -254442.43 659045.488 -404603.06 7.41356682
 143000      .143  396243.292 -207359.58 178.307022 -207537.89 603602.875 -396064.98 5.94356741
 143500     .1435  382396.297 -158073.17 110.620931 -158183.79 540469.462 -382285.68 3.68736435
 144000      .144  364631.555 -108206.44 59.7005634 -108266.14 472837.998 -364571.85 1.99001878
 144500     .1445  341638.382 -57522.331 48.7908373 -57571.122 399160.713 -341589.59 1.62636124
 145000      .145   311961.77 -5394.2941 63.4557553 -5457.7499 317356.064 -311898.31 2.11519184
 145500     .1455  275554.093 47759.4236 91.6736311   47667.75  227794.67 -275462.42  3.0557877
 146000      .146  232638.211 101512.468 116.512461 101395.956 131125.743  -232521.7 3.88374871
 146500     .1465  185140.543  154282.06 116.638005 154165.422  30858.483 -185023.91 3.88793352
 147000      .147  136513.932 202987.253  102.72635 202884.527 -66473.321 -136411.21 3.42421166
 147500     .1475  87929.1057   246416.6 112.592438 246304.008 -158487.49 -87816.513 3.75308127
 148000      .148  38416.0152 285107.489 158.529849 284948.959 -246691.47 -38257.485 5.28432831
 148500     .1485   -12720.28 319675.505 222.839406 319452.665 -332395.78 12943.1193 7.42798021
 149000      .149  -64876.145 349787.181 293.714156 349493.467 -414663.33 65169.8589 9.79047185
 149500     .1495  -117430.76  375319.94 352.781204 374967.159  -492750.7 117783.541 11.7593735
 150000       .15  -167797.76 394693.588 384.231783 394309.357 -562491.34 168181.987 12.8077261
 150500     .1505  -213016.03 405785.809 406.349163  405379.46 -618801.84 213422.377 13.5449721
 151000      .151  -252643.59 408541.924 451.386605 408090.538 -661185.52 253094.979 15.0462202
 151500     .1515  -287830.65 404261.092 521.375968 403739.716 -692091.75  288352.03 17.3791989
 152000      .152   -319178.6 394010.032 598.330855 393411.701 -713188.63 319776.932 19.9443618
 152500     .1525  -346265.61 378097.784 670.884167 377426.899  -724363.4 346936.496 22.3628056
 153000      .153  -368635.94  356975.49 721.447658 356254.042 -725611.43  369357.39 24.0482553
 153500     .1535  -383980.28 329558.929 741.225101 328817.704 -713539.21 384721.509 24.7075034
 154000      .154  -390545.65 294983.898 753.980529 294229.918 -685529.54 391299.626 25.1326843
 154500     .1545   -389073.8 254364.776 785.621222 253579.155 -643438.58 389859.422 26.1873741
 155000      .155  -381321.28 209704.488 830.916769 208873.572 -591025.76 382152.193 27.6972256
 155500     .1555  -368261.56 162452.497  874.18493 161578.312 -530714.06 369135.744 29.1394977
 156000      .156  -350157.63 113495.721 904.649074 112591.072 -463653.35 351062.279 30.1549691
 156500     .1565  -326967.28 63550.1108 907.122233 62642.9886 -390517.39   327874.4 30.2374078
 157000      .157  -297152.91 11916.1311 880.860893 11035.2702 -309069.04 298033.768 29.3620298
 157500     .1575  -260337.73 -41381.641 852.790587 -42234.432 -218956.09 261190.523 28.4263529
 158000      .158  -218348.52 -94641.103  842.04211 -95483.145 -123707.41 219190.559 28.0680703
 158500     .1585  -173439.96 -145759.33 838.653763 -146597.98 -27680.631 174278.613 27.9551254
 159000      .159  -126865.74 -193461.18 829.733795 -194290.92 66595.4387 127695.477 27.6577932
 159500     .1595  -79407.698 -236880.96 805.199709 -237686.16 157473.266 80212.8975 26.8399903
 160000       .16   -31148.67 -275716.65 753.562424 -276470.22 244567.985 31902.2324 25.1187475
 160500     .1605  18854.8248 -310787.46 681.871221 -311469.33 329642.283 -18172.954 22.7290407
 161000      .161  70081.9087 -341898.62 617.363066 -342515.98 411980.526 -69464.546 20.5787689
 161500     .1615   120291.43 -367565.95  572.09853 -368138.05 487857.382 -119719.33  19.069951
 162000      .162  167353.862 -386330.57 533.629399  -386864.2 553684.428 -166820.23 17.7876466
 162500     .1625  210284.191 -397694.99 491.576985 -398186.57 607979.185 -209792.61 16.3858995
 163000      .163  248448.155 -401454.34 436.745018 -401891.09   649902.5 -248011.41 14.5581673
 163500     .1635  282234.785 -398254.96 361.746282  -398616.7 680489.741 -281873.04 12.0582094
 164000      .164  312550.219 -389426.28 279.578688 -389705.85 701976.496 -312270.64  9.3192896
 164500     .1645  338734.142 -375121.93 215.049598 -375336.98  713856.07 -338519.09 7.16831994
 165000      .165  358947.782 -354561.28 173.148162 -354734.43 713509.065 -358774.63 5.77160542
 165500     .1655  371880.069 -327283.24  140.37897 -327423.62 699163.309 -371739.69   4.679299
 166000      .166  377351.636 -293725.86 107.753205 -293833.61 671077.492 -377243.88 3.59177349
 166500     .1665  375500.219 -254526.42 66.6113983 -254593.03 630026.641 -375433.61 2.22037994
 167000      .167  367586.012 -211244.56 13.3435515  -211257.9 578830.568 -367572.67  .44478505
 167500     .1675  354864.411 -165600.55 -35.579362 -165564.97 520464.958 -354899.99 -1.1859787
 168000      .168  337026.129 -118048.67 -59.937497 -117988.73 455074.795 -337086.07 -1.9979166
 168500     .1685  313056.859    -68379. -61.448421 -68317.551 381435.858 -313118.31 -2.0482807
 169000      .169  282709.968 -16852.558 -53.826035 -16798.732 299562.526 -282763.79 -1.7942012
 169500     .1695  246675.424 35594.1985 -45.571923 35639.7705 211081.225   -246721. -1.5190641
  % % % % % %   Suspended simulation;  plot data space exhausted;  SPY SPACE is required.   LIMBUF =  340000.
  % % % % % %   Suspended simulation;  plot data space exhausted;  SPY SPACE is required.   LIMBUF =  340000.
  +++  Time-sharing disabled.   Send  user-keyed interrupt to silence alarm.
   Current values.  INDBUF  INDBEG  LIMBUF  MFLUSH  NUMDCD  KCARD1  KCARD2
                    339994      50  340000    1003      46       1      50
Plot timespan now in memory (in sec) = 1.27476007E-01   1.69969000E-01
   ++++  Begin plot-data copy from memory to disk.   MFLUSH, INDBUF, N4, Tbeg,  Tend = 1004  339994       1  -1.00000E+00
1.00000E+19
 170000       .17  205960.188 87887.3077 -44.785008 87932.0927 118072.881 -206004.97 -1.4928336
 170500     .1705  162526.998 138169.442 -51.475044 138220.917 24357.5556 -162578.47 -1.7158348
 171000      .171  117832.095 184930.188 -47.937977 184978.126 -67098.093 -117880.03 -1.5979326
 171500     .1715  71828.2964 227936.064 -19.748131 227955.812 -156107.77 -71848.045 -.65827104
 172000      .172  24115.0471 267404.903 25.9085132 267378.994 -243289.86 -24089.139 .863617107
 172500     .1725  -24867.459 303027.309  75.942743 302951.366 -327894.77 24943.4016 2.53142477
 173000      .173  -74051.819 334092.263 122.203527  333970.06 -408144.08 74174.0221 4.07345092
 173500     .1735   -122049.8 359751.779    157.679   359594.1 -481801.58 122207.476 5.25596665
 174000      .174   -166869.8 378626.751  185.87616 378440.875 -545496.55 167055.674   6.195872
 174500     .1745  -207442.28 390065.035 224.100795 389840.934 -597507.32 207666.384 7.47002651
 175000      .175  -244063.81  394583.19 280.929548  394302.26   -638647. 244344.744 9.36431827
 175500     .1755  -277121.21 392929.296 345.762857 392583.533  -670050.5  277466.97 11.5254286
 176000      .176  -306190.57 385295.649  406.99219 384888.657 -691486.22 306597.563 13.5664063
 176500     .1765  -330516.11 371673.224 457.294419  371215.93 -702189.34 330973.408 15.2431473
 177000      .177  -349008.44 351838.481 491.695551 351346.785 -700846.92 349500.134 16.3898517
 177500     .1775  -360370.45 325290.745 517.227232 324773.518  -685661.2 360887.681 17.2409077
 178000      .178  -364477.08 292438.582 549.936263 291888.646 -656915.66 365027.015 18.3312088
 178500     .1785  -362320.11 254616.635 593.397624 254023.237 -616936.75 362913.512 19.7799208
 179000      .179  -354739.48 213127.534 635.854094 212491.679 -567867.01 355375.336 21.1951365
 179500     .1795  -341823.44 168681.685 667.886453 168013.798 -510505.13 342491.331 22.2628818
 180000       .18  -323497.37 121854.085 683.744133 121170.341 -445351.46 324181.114 22.7914711
 180500     .1805  -299320.56 72879.2167 681.436971 72197.7798 -372199.78 300002.002 22.7145657
 181000      .181  -268964.91 21913.0449  671.18422 21241.8607 -290877.95 269636.091 22.3728073
 181500     .1815  -233317.26 -29985.438 667.166755 -30652.605 -203331.83  233984.43 22.2388918
 182000      .182   -194021.8 -81162.586 669.019928 -81831.606 -112859.22 194690.824 22.3006643
 182500     .1825  -152316.21 -130275.44 665.543974 -130940.99 -22040.764  152981.75 22.1847991
 183000      .183  -108737.07 -176597.51 649.751812 -177247.26 67860.4419 109386.821 21.6583937
 183500     .1835   -63672.45  -219576.1 617.857283 -220193.96 155903.649 64290.3078 20.5952428
 184000      .184  -17111.496 -259098.39 571.160175 -259669.55 241986.898 17682.6561 19.0386725
 184500     .1845  30636.8794 -294973.24 522.046225 -295495.29 325610.123 -30114.833 17.4015408
 185000      .185  78181.2177 -326221.37  482.10843 -326703.48 404402.589 -77699.109  16.070281
 185500     .1855  123780.143 -351596.45 447.901596 -352044.36 475376.596 -123332.24 14.9300532
 186000      .186  166332.841 -370378.84 409.578104 -370788.42 536711.685 -165923.26 13.6526035
 186500     .1865  205382.222 -382426.56 362.206139 -382788.77 587808.785 -205020.02  12.073538
 187000      .187  240694.711 -387827.93 303.765534 -388131.69 628522.638 -240390.95 10.1255178
 187500     .1875  272417.025 -387104.33 238.374467  -387342.7 659521.351 -272178.65 7.94581557
 188000      .188  300244.113 -380537.92 179.024134 -380716.94  680782.03 -300065.09 5.96747115
 188500     .1885  323006.013 -367750.43 133.868766  -367884.3 690756.443 -322872.14 4.46229221
 189000      .189   339540.88 -348334.79 96.9327512 -348431.73 687875.673 -339443.95 3.23109171
 189500     .1895  349467.541 -322494.89 59.6839476 -322554.57  671962.43 -349407.86 1.98946492
 190000       .19  352944.564 -290881.04 18.4726152 -290899.51 643825.601 -352926.09 .615753842
 190500     .1905  350413.132 -254373.85 -27.505672 -254346.34  604786.98 -350440.64 -.91685574
 191000      .191  342576.119 -214144.09  -72.29009  -214071.8 556720.204 -342648.41 -2.4096697
 191500     .1915  329569.119 -170939.26 -103.94939 -170835.31 500508.375 -329673.07 -3.4649797
 192000      .192  310871.967  -124935.8  -118.4213 -124817.38 435807.769 -310990.39 -3.9473767
 192500     .1925  286207.227 -76404.173  -123.7026  -76280.47   362611.4 -286330.93 -4.1234199
 193000      .193  256072.159 -26171.169 -127.33494 -26043.834 282243.328 -256199.49 -4.2444979
 193500     .1935  221337.167 24684.8115 -132.34821 24817.1597 196652.356 -221469.52  -4.411607
 194000      .194   183127.99 74923.7995 -138.75659 75062.5561 108204.191 -183266.75 -4.6252197
 194500     .1945  142612.784 123249.146 -139.71401  123388.86 19363.6384  -142752.5 -4.6571335
 195000      .195  100273.482 168957.807 -125.52666 169083.334 -68684.325 -100399.01 -4.1842221
 195500     .1955  56095.3361 211849.745  -96.21067 211945.956 -155754.41 -56191.547 -3.2070223
 196000      .196  10410.5859 251580.319 -60.976364 251641.295 -241169.73 -10471.562 -2.0325455
 196500     .1965  -35810.091 287379.633 -26.457827  287406.09 -323189.72  35783.633 -.88192757
 197000      .197  -81416.662 318406.706 4.77577094  318401.93 -399823.37 81421.4379 .159192365
 197500     .1975  -125111.89 343748.177 33.5275587  343714.65 -468860.07 125145.415 1.11758529
 198000      .198  -165814.41 362662.509  66.981696 362595.527 -528476.92 165881.389  2.2327232
 198500     .1985  -203213.65 375088.501 112.210518 374976.291 -578302.15  203325.86  3.7403506
 199000      .199  -237363.08 381365.242 165.929556 381199.312 -618728.32 237529.008 5.53098519
 199500     .1995  -267938.76 381636.291 218.852858 381417.438 -649575.05 268157.613 7.29509527
 200000       0.2  -294166.14 375739.076 265.575157 375473.501 -669905.22 294431.718 8.85250524
 200500     .2005  -315242.64 363529.784 304.353744  363225.43 -678772.42 315546.992 10.1451248
 201000      .201  -330343.62 344841.622 337.223212 344504.399 -675185.24 330680.846 11.2407737
 201500     .2015    -339066.  319818.34 371.558128 319446.782 -658884.34 339437.553 12.3852709
 202000      .202  -341765.87 289238.993 412.062962  288826.93 -631004.87 342177.936 13.7354321
 202500     .2025  -339005.31 254108.146 453.489175 253654.657 -593113.46 339458.804 15.1163058
 203000      .203  -330940.56 215141.288 487.646661 214653.641 -546081.84 331428.202 16.2548887
 203500     .2035  -317427.11 172801.303 510.835405 172290.468 -490228.41 317937.941 17.0278468
 204000      .204  -298347.07  127548.26 522.668582 127025.591 -425895.33 298869.734 17.4222861
 204500     .2045  -273638.87 79810.4105  526.79745 79283.6131 -353449.28 274165.671  17.559915
 205000      .205  -243751.23 30353.5253 530.693777 29822.8316 -274104.75 244281.923 17.6897926
 205500     .2055  -209755.13 -19581.779 537.129257 -20118.908 -190173.35 210292.262 17.9043086
 206000      .206  -172719.62 -68754.803 540.132705 -69294.936 -103964.82 173259.751 18.0044235
 206500     .2065  -133249.79 -116328.91 533.356674 -116862.27 -16920.876 133783.147 17.7785558
 207000      .207   -91720.28 -161719.25  514.99661 -162234.25 69998.9698 92235.2764 17.1665537
 207500     .2075  -48494.345 -204426.19  486.24186 -204912.43 155931.845 48980.5871  16.208062
 208000      .208  -4010.0804 -244009.59 452.278344 -244461.87 239999.513 4462.35869 15.0759448
 208500     .2085  40809.6175 -279729.51 420.278574 -280149.79 320539.132 -40389.339 14.0092858
 209000      .209  84645.7483 -310570.86 391.286902 -310962.15  395216.61 -84254.461 13.0428967
 209500     .2095  126406.007 -335722.78 359.340425 -336082.12  462128.79 -126046.67 11.9780142
 210000       .21  165520.839 -354848.61 319.989874  -355168.6 520369.446 -165200.85 10.6663291
 210500     .2105  201634.242 -367856.01 272.993644 -368129.01 569490.257 -201361.25 9.09978812
 211000      .211  234469.004 -374795.18 220.811895 -375015.99 609264.181 -234248.19 7.36039651
 211500     .2115  263671.757  -375758.3 169.495087  -375927.8 639430.061 -263502.26 5.64983622
 212000      .212  288482.778 -370567.38 125.157953 -370692.54 659050.162 -288357.62 4.17193176
  % % % % % %   Suspended simulation;  plot data space exhausted;  SPY SPACE is required.   LIMBUF =  340000.
  % % % % % %   Suspended simulation;  plot data space exhausted;  SPY SPACE is required.   LIMBUF =  340000.
  +++  Time-sharing disabled.   Send  user-keyed interrupt to silence alarm.
   Current values.  INDBUF  INDBEG  LIMBUF  MFLUSH  NUMDCD  KCARD1  KCARD2
                    339994      50  340000    1004      46       1      50
Plot timespan now in memory (in sec) = 1.69967994E-01   2.12461000E-01
   ++++  Begin plot-data copy from memory to disk.   MFLUSH, INDBUF, N4, Tbeg,  Tend = 1005  339994       1  -1.00000E+00
1.00000E+19
 212500     .2125  307977.943 -358921.87 87.0202168 -359008.89 666899.808 -307890.92 2.90067389
 213000      .213  321630.606 -340836.69 49.2975406 -340885.99 662467.293 -321581.31 1.64325135
 213500     .2135  329436.147 -316769.74 8.93856818 -316778.68 646205.884 -329427.21 .297952273
 214000      .214  331577.095 -287358.05 -33.437176 -287324.61 618935.144 -331610.53 -1.1145725
 214500     .2145  328333.333 -253353.12 -74.756265 -253278.36 581686.452 -328408.09 -2.4918755
 215000      .215  319867.555 -215452.68 -109.07821  -215343.6 535320.233 -319976.63 -3.6359404
 215500     .2155  305997.392 -174065.64 -132.16255 -173933.48 480063.032 -306129.55 -4.4054182
 216000      .216  286536.409 -129544.66 -146.73424 -129397.93 416081.071 -286683.14 -4.8911414
 216500     .2165  261756.397 -82556.255 -158.46619 -82397.788 344312.652 -261914.86 -5.2822062
 217000      .217   232354.22 -34079.245 -169.62668 -33909.618 266433.465 -232523.85 -5.6542226
 217500     .2175  199134.888 14849.3769 -179.38038 15028.7573 184285.511 -199314.27  -5.979346
 218000      .218  162932.996 63184.2721 -184.63072 63368.9028 99748.7237 -163117.63 -6.1543573
 218500     .2185  124366.537 110078.674 -180.33749 110259.012 14287.8627 -124546.87 -6.0112497
 219000      .219  83725.6214 155019.455 -164.56507  155184.02 -71293.834 -83890.186 -5.4855025
 219500     .2195   41364.702  197540.52 -141.75179 197682.272 -156175.82 -41506.454 -4.7250596
 220000       .22   -1951.209 236930.476 -117.35379 237047.829 -238881.68 1833.85521 -3.9117931
 220500     .2205  -45201.832 272331.089 -93.148946 272424.238 -317532.92 45108.6831 -3.1049649
 221000      .221  -87377.797 302947.042 -68.298474  303015.34 -390324.84 87309.4987 -2.2766158
 221500     .2215  -127565.22 328093.684 -39.869682 328133.554  -455658.9 127525.349 -1.3289894
 222000      .222  -165184.86 347403.993 -3.9918645 347407.984 -512588.85  165180.87 -.13306215
 222500     .2225  -199981.14 360853.265 39.1637746 360814.101  -560834.4 200020.301 1.30545915
 223000      .223  -231615.46  368444.01 84.1713399 368359.839 -600059.47 231699.629 2.80571133
 223500     .2235  -259435.88 369992.863 126.236992 369866.626 -629428.74 259562.117 4.20789972
 224000      .224  -282705.46 365286.588 164.231352 365122.356 -647992.05 282869.691  5.4743784
 224500     .2245  -300800.55 354230.594 199.259689 354031.334 -655031.14  300999.81 6.64198962
 225000      .225  -313303.88 336901.354 234.304958 336667.049 -650205.24 313538.187 7.81016528
 225500     .2255  -320199.47 313720.041 272.280839  313447.76 -633919.51 320471.753 9.07602797
 226000      .226  -321746.75  285374.07 311.595899 285062.474 -607120.82 322058.345   10.38653
 226500     .2265  -318088.52 252499.298  346.83247 252152.465 -570587.82 318435.353 11.5610823
 227000      .227  -309128.51  215547.01 374.451653 215172.558 -524675.52 309502.963 12.4817218
 227500     .2275  -294784.69 174963.455 394.337557 174569.118 -469748.14 295179.025 13.1445852
 228000      .228  -275121.15 131281.509 408.288611 130873.221 -406402.66 275529.436 13.6096204
 228500     .2285  -250445.85 85183.2405 419.633194 84763.6073 -335629.09 250865.482 13.9877731
 229000      .229  -221436.75 37621.7115 430.669132 37191.0423 -259058.46 221867.416 14.3556377
 229500     .2295  -188924.76 -10335.909 439.139538 -10775.049 -178588.85 189363.902 14.6379846
 230000       .23    -153543. -57800.365 440.456322 -58240.821 -95742.635 153983.456 14.6818774
 230500     .2305  -115702.96 -104111.21 432.689432  -104543.9 -11591.752 116135.648 14.4229811
 231000      .231  -75838.202 -148655.77 416.905697 -149072.68 72817.5697 76255.1077 13.8968566
 231500     .2315  -34487.368 -190814.08 395.765751 -191209.84 156326.708 34883.1333 13.1921917
 232000      .232   7606.8176  -229881.5 372.941165 -230254.44 237488.318 -7233.8764 12.4313722
 232500     .2325  49447.0861 -265002.12 350.205485 -265352.33 314449.208 -49096.881 11.6735162
 233000      .233   90052.944 -295369.47  325.06428 -295694.54 385422.419  -89727.88  10.835476
 233500     .2335  128744.715 -320465.71 294.060424 -320759.77 449210.426 -128450.65 9.80201413
 234000      .234  165078.611 -340031.79 256.725806 -340288.52 505110.405 -164821.89 8.55752685
 234500     .2345   198630.11 -353896.76 215.042575 -354111.81 552526.873 -198415.07 7.16808584
 235000      .235  228934.984 -361935.04 172.233873 -362107.28 590870.028 -228762.75 5.74112911
 235500     .2355   255391.32 -363974.88 131.878464 -364106.76 619366.199 -255259.44  4.3959488
 236000      .236  277277.565 -359781.88 94.9565939 -359876.84 637059.445 -277182.61  3.1652198
 236500     .2365  294037.778 -349271.06 58.7424122  -349329.8 643308.835 -293979.04 1.95808041
 237000      .237  305479.213 -332675.27 20.6871687 -332695.96 638154.484 -305458.53 .689572289
 237500     .2375  311633.654 -310446.29 -18.788514  -310427.5  622079.94 -311652.44 -.62628381
 238000      .238  312573.026 -283102.08 -57.387044  -283044.7  595675.11 -312630.41 -1.9129015
 238500     .2385  308353.869 -251180.79 -91.941109 -251088.85 559534.655 -308445.81 -3.0647036
 239000      .239  298925.868  -215144.6 -119.62146 -215024.98 514070.469 -299045.49 -3.9873818
 239500     .2395  284205.484 -175408.53 -140.64201 -175267.88  459614.01 -284346.13 -4.6880671
 240000       .24  264342.627 -132542.11 -158.13407 -132383.97 396884.736 -264500.76 -5.2711357
 240500     .2405  239824.574 -87364.104 -174.16149 -87189.942 327188.678 -239998.74 -5.8053832
 241000      .241  211287.468 -40798.301 -188.05267 -40610.248 252085.768 -211475.52 -6.2684222
 241500     .2415  179365.411  6252.7605 -197.76446 6450.52496  173112.65 -179563.18 -6.5921487
 242000      .242  144630.345 52959.4474 -200.73649 53160.1839 91670.8974 -144831.08 -6.6912162
 242500     .2425  107518.919 98647.3159 -195.36592 98842.6818 8871.60349 -107714.29 -6.5121972
 243000      .243  68450.1749 142725.622 -183.21707 142908.839 -74275.447 -68633.392 -6.1072355
 243500     .2435  28055.3033 184504.948  -167.8189 184672.767 -156449.65 -28223.122 -5.5939633
 244000      .244  -12803.838 223165.928 -150.97637 223316.904 -235969.77 12652.8615 -5.0325457
 244500     .2445  -53241.744 257917.836 -132.08759 258049.923 -311159.58 53109.6564 -4.4029198
 245000      .245  -92464.529 288090.624 -109.56493 288200.189 -380555.15 92354.9644 -3.6521643
 245500     .2455  -129829.63 313184.313 -81.614448 313265.927 -443013.95 129748.019 -2.7204816
 246000      .246  -164884.71 332918.113  -47.87023 332965.984 -497802.83 164836.842 -1.5956743
 246500     .2465  -197214.75 347119.161 -10.935598 347130.096 -544333.91 197203.813 -.36451994
 247000      .247  -226255.13  355562.33 25.6381409 355536.691 -581817.46 226280.764 .854604697
 247500     .2475   -251338.8 357985.995  60.455406  357925.54 -609324.79 251399.252  2.0151802
 248000      .248  -271890.73 354237.911 94.1684871 354143.742 -626128.64 271984.895 3.13894957
 248500     .2485  -287505.74 344330.745  128.13653 344202.608 -631836.49  287633.88 4.27121766
 249000      .249  -297996.61 328480.244 163.642908 328316.601 -626476.85 298160.253  5.4547636
 249500     .2495  -303386.14 307110.147  200.23619 306909.911 -610496.29 303586.375 6.67453965
 250000       .25  -303729.14 280710.557 234.944202 280475.613  -584439.7 303964.083  7.8314734
 250500     .2505  -298969.23  249704.41 264.798277 249439.611 -548673.64 299234.032 8.82660925
 251000      .251  -289029.25 214496.549 289.182811 214207.366  -503525.8 289318.436 9.63942705
 251500     .2515  -273971.87 175592.447 309.151446 175283.295 -449564.32  274281.02 10.3050482
 252000      .252   -254043.1 133624.455 326.232628 133298.222 -387667.55  254369.33 10.8744209
 252500     .2525  -229700.35 89375.9112 341.591236   89034.32 -319076.26 230041.937 11.3863745
 253000      .253  -201556.06 43744.4197 354.486531 43389.9331 -245300.47 201910.542 11.8162177
 253500     .2535  -170190.05 -2412.0973 362.243659  -2774.341 -167777.95 170552.294 12.0747886
 254000      .254  -136052.82 -48372.818 362.957924 -48735.776 -87680.003 136415.779 12.0985975
 254500     .2545  -99581.627  -93478.99 357.035583 -93836.025 -6102.6376 99938.6628 11.9011861
  % % % % % %   Suspended simulation;  plot data space exhausted;  SPY SPACE is required.   LIMBUF =  340000.
  % % % % % %   Suspended simulation;  plot data space exhausted;  SPY SPACE is required.   LIMBUF =  340000.
  +++  Time-sharing disabled.   Send  user-keyed interrupt to silence alarm.
   Current values.  INDBUF  INDBEG  LIMBUF  MFLUSH  NUMDCD  KCARD1  KCARD2
                    339994      50  340000    1005      46       1      50
Plot timespan now in memory (in sec) = 2.12459996E-01   2.54953000E-01
   ++++  Begin plot-data copy from memory to disk.   MFLUSH, INDBUF, N4, Tbeg,  Tend = 1006  339994       1  -1.00000E+00
1.00000E+19
 255000      .255  -61321.323  -137042.4 346.144729 -137388.54 75721.0759 61667.4675 11.5381576
 255500     .2555  -21943.634 -178333.67 332.181903 -178665.86 156390.041 22275.8157 11.0727301
 256000      .256  17745.4503 -216568.29 316.365486 -216884.66 234313.744 -17429.085 10.5455162
 256500     .2565  56899.4306 -250971.33 297.944051 -251269.28 307870.762 -56601.487 9.93146836
 257000      .257  94807.6547 -280921.43 274.853072 -281196.29 375729.087 -94532.802 9.16176905
 257500     .2575  130939.997 -306001.44 246.314316 -306247.75 436941.437 -130693.68  8.2104772
 258000      .258  164815.598 -325901.36 213.610015 -326114.97 490716.961 -164601.99 7.12033383
 258500     .2585  195915.158  -340345.9 178.857631 -340524.76  536261.06  -195736.3 5.96192104
 259000      .259   223671.99 -349082.59 144.122238 -349226.71 572754.576 -223527.87  4.8040746
 259500     .2595  247480.038 -351872.67  110.47037 -351983.14 599352.707 -247369.57 3.68234568
 260000       .26  266806.544 -348567.87 77.0399934 -348644.91 615374.417  -266729.5 2.56799978
 260500     .2605  281336.633 -339226.34 42.2516805 -339268.59 620562.976 -281294.38 1.40838935
 261000      .261   290962.51 -324112.26 6.08546496 -324118.35 615074.774 -290956.43 .202848832
 261500     .2615  295644.502 -303583.57 -29.799799 -303553.77 599228.072  -295674.3 -.99332664
 262000      .262  295345.519 -278031.61  -63.31413 -277968.29 573377.126 -295408.83  -2.110471
 262500     .2625  290021.902 -247862.47  -92.70504 -247769.77 537884.374 -290114.61  -3.090168
 263000      .263  279641.942  -213492.8  -117.4845 -213375.32 493134.744 -279759.43 -3.9161499
 263500     .2635  264300.508 -175428.39 -138.92243 -175289.47   439728.9 -264439.43 -4.6307478
 264000      .264  244319.383  -134345.1 -158.45193 -134186.65 378664.487 -244477.83  -5.281731
 264500     .2645  220186.033 -91044.894 -175.85528 -90869.039 311230.927 -220361.89 -5.8618425
 265000      .265  192416.573 -46341.379 -189.64937 -46151.729 238757.952 -192606.22 -6.3216456
 265500     .2655  161505.718  -1011.529 -198.24794 -813.28106 162517.247 -161703.97 -6.6082645
 266000      .266  127915.872 44225.3096 -200.63819 44425.9478  83690.562 -128116.51 -6.6879395
 266500     .2665  92106.5136  88699.982 -197.21742 88897.1994 3406.53159 -92303.731  -6.573914
 267000      .267  54641.6967 131714.705 -189.82342 131904.529 -77073.009  -54831.52 -6.3274472
 267500     .2675    16245.54 172493.091 -179.94676 172673.038 -156247.55 -16425.487 -5.9982253
 268000      .268  -22293.875 210250.458 -167.44767 210417.906 -232544.33 22126.4274  -5.581589
 268500     .2685   -60246.32 244293.694 -151.28748 244444.982 -304540.01 60095.0325 -5.0429161
 269000      .269  -96973.461 274052.249 -130.54612 274182.795 -371025.71  96842.915 -4.3515373
 269500     .2695  -131934.32 299090.479 -105.02845 299195.507 -431024.79 131829.287 -3.5009482
 270000       .27  -164640.01 319079.792  -75.94377 319155.736 -483719.81  164564.07  -2.531459
 270500     .2705   -194554.9 333717.457 -45.499687 333762.957 -528272.36   194509.4 -1.5166562
 271000      .271   -221077.3 342698.671  -15.11062 342713.781 -563775.98 221062.194 -.50368735
 271500     .2715  -243649.23 345794.094 15.3474117 345778.747 -589443.33 243664.582 .511580391
 272000      .272  -261849.95 342922.255 46.6048574 342875.651 -604772.21  261896.56 1.55349525
 272500     .2725  -275410.05 334159.187 79.1428922 334080.044 -609569.24 275489.193 2.63809641
 273000      .273  -284201.75 319733.347 112.644477 319620.702  -603935.1 284314.397 3.75481591
 273500     .2735  -288173.86 299974.167 145.523542 299828.644 -588148.03 288319.385 4.85078474
 274000      .274  -287261.02 275229.739  175.69358 275054.045 -562490.75  287436.71 5.85645266
 274500     .2745  -281390.26 245855.223 202.197331 245653.026 -527245.48 281592.454 6.73991103
 275000      .275  -270585.81  212285.28 225.455052 212059.825 -482871.09 270811.264  7.5151684
 275500     .2755  -255028.15 175076.433 246.253167  174830.18 -430104.58 255274.401 8.20843889
 276000      .276  -235047.21 134898.364 265.039371 134633.325 -369945.57  235312.25 8.83464571
 276500     .2765  -211093.14 92511.2391 281.430264 92229.8088 -303604.37 211374.566 9.38100881
 277000      .277  -183654.36 48697.4555 293.981388 48403.4741 -232351.82 183948.341 9.79937962
 277500     .2775  -153178.73 4186.62542 301.211971 3885.41345 -157365.36 153479.942  10.040399
 278000      .278  -120099.83 -40338.557 302.949017 -40641.506 -79761.272 120402.778 10.0983006
 278500     .2785   -84927.71 -84177.304 300.156307 -84477.461 -750.40587 85227.8665 10.0052102
 279000      .279  -48277.356  -126590.2  293.93735 -126884.14 78312.8439 48571.2929 9.79791166
 279500     .2795  -10846.942  -166816.2 284.959559 -167101.16 155969.262 11131.9012 9.49865197
 280000       .28  26626.7314 -204104.78 273.031294 -204377.81  230731.51   -26353.7 9.10104313
 280500     .2805  63455.6797 -237786.74 257.125476 -238043.87 301242.423 -63198.554  8.5708492
 281000      .281  99058.9092 -267329.32 236.541363 -267565.87 366388.234 -98822.368  7.8847121
 281500     .2815  132916.815 -292308.15 211.891325 -292520.05  425224.97 -132704.92 7.06304416
 282000      .282  164494.264 -312345.85 184.613018 -312530.46 476840.109 -164309.65 6.15376728
 282500     .2825  193231.193  -327100.6 156.054577 -327256.66 520331.797 -193075.14 5.20181922
 283000      .283  218568.995 -336280.49 127.008281 -336407.49 554849.481 -218441.99 4.23360935
 283500     .2835  240000.417 -339674.94 97.3812969 -339772.32 579675.354 -239903.04 3.24604323
 284000      .284  257147.839 -337214.48 66.4662202 -337280.95 594362.322 -257081.37 2.21554067
 284500     .2845  269791.316 -328996.41 34.1249971 -329030.54  598787.73 -269757.19  1.1374999
 285000      .285  277803.242 -315233.45 1.39849204 -315234.85 593036.696 -277801.84 .046616401
 285500     .2855  281081.298  -296193.5  -30.18532 -296163.31 577274.795 -281111.48 -1.0061773
 286000      .286   279546.27 -272188.84 -59.399839 -272129.44 551735.113 -279605.67 -1.9799946
 286500     .2865  273164.774 -243582.93 -85.688669 -243497.24 516747.701 -273250.46  -2.856289
 287000      .287  261995.731 -210816.74  -109.3727 -210707.37 472812.473  -262105.1 -3.6457566
 287500     .2875  246248.944 -174451.39  -131.1598 -174320.23 420700.334  -246380.1 -4.3719934
 288000      .288  226279.806 -135164.49 -151.03854 -135013.46   361444.3 -226430.85 -5.0346181
 288500     .2885   202508.63 -93682.795 -168.02369 -93514.772 296191.426 -202676.65 -5.6007897
 289000      .289   175362.56 -50727.074 -180.94464 -50546.129 226089.634  -175543.5 -6.0314881
 289500     .2895  145275.252  -7002.312 -189.08619 -6813.2258 152277.564 -145464.34 -6.3028728
 290000       .29  112704.885 36798.6961 -192.46587  36991.162  75906.189 -112897.35 -6.4155288
 290500     .2905  78175.0017 79970.6285 -191.89624 80162.5248 -1795.6269 -78366.898 -6.3965414
 291000      .291  42311.7528 121766.788 -188.32322 121955.112 -79455.035 -42500.076 -6.2774406
 291500     .2915  5811.52665 161422.322 -181.87705 161604.199  -155610.8 -5993.4037 -6.0625682
 292000      .292  -30643.763 198223.442 -171.92344 198395.365  -228867.2 30471.8393 -5.7307812
 292500     .2925  -66431.184 231548.286 -157.86018 231706.146 -297979.47 66273.3237 -5.2620062
 293000      .293  -100982.67 260868.983  -139.6097 261008.593 -361851.65 100843.058 -4.6536568
 293500     .2935  -133765.68 285741.589  -117.8092 285859.398 -419507.27 133647.869 -3.9269732
 294000      .294  -164244.01 305775.875 -93.719869 305869.595 -470019.89 164150.292 -3.1239956
 294500     .2945  -191856.09 320612.459 -68.460459 320680.919 -512468.55 191787.633 -2.2820153
 295000      .295  -216061.63 329952.772 -42.272906 329995.044  -546014.4 216019.353 -1.4090969
 295500     .2955  -236416.08 333615.946 -14.815761 333630.762 -570032.03 236401.269 -.49385869
 296000      .296  -252594.95 331557.929 14.0931093 331543.836 -584152.88 252609.042 .469770309
 296500     .2965  -264379.19 323859.641 44.1169772 323815.524 -588238.83 264423.306 1.47056591
 297000      .297  -271627.12 310703.582 74.2921267  310629.29  -582330.7 271701.409 2.47640422
  % % % % % %   Suspended simulation;  plot data space exhausted;  SPY SPACE is required.   LIMBUF =  340000.
  % % % % % %   Suspended simulation;  plot data space exhausted;  SPY SPACE is required.   LIMBUF =  340000.
  +++  Time-sharing disabled.   Send  user-keyed interrupt to silence alarm.
   Current values.  INDBUF  INDBEG  LIMBUF  MFLUSH  NUMDCD  KCARD1  KCARD2
                    339994      50  340000    1006      46       1      50
Plot timespan now in memory (in sec) = 2.54952013E-01   2.97445000E-01
   ++++  Begin plot-data copy from memory to disk.   MFLUSH, INDBUF, N4, Tbeg,  Tend = 1007  339994       1  -1.00000E+00
1.00000E+19
 297500     .2975  -274232.06 292334.481 103.262367 292231.219 -566566.54  274335.32 3.44207889
 298000      .298  -272109.26 269038.028 130.073982 268907.954 -541147.29 272239.333  4.3357994
 298500     .2985  -265244.55  241169.41 154.662565 241014.748 -506413.96 265399.211 5.15541884
 299000      .299   -253748.5 209191.351 177.385258 209013.965 -462939.85 253925.883 5.91284192
 299500     .2995  -237857.72 173671.736 198.368862 173473.367 -411529.46 238056.093 6.61229539
 300000       0.3  -217907.48 135258.774 217.260332 135041.514 -353166.25 218124.739 7.24201108
 300500     .3005  -194292.39 94645.8365 233.195594 94412.6409 -288938.23 194525.589 7.77318646
 301000      .301  -167421.47 52527.4911 245.153769 52282.3373 -219948.96 167666.627  8.1717923
 301500     .3015  -137711.53 9582.97156 252.706896 9330.26467  -147294.5  137964.24 8.42356319
 302000      .302  -105632.22 -33496.519 256.253113 -33752.772 -72135.697 105888.469 8.54177045
 302500     .3025  -71738.668 -75985.107 256.442627  -76241.55 4246.43882 71995.1108 8.54808757
 303000      .303  -36655.007  -117137.2 253.634821 -117390.83 80482.1909 36908.6415 8.45449402
 303500     .3035  -1038.4879 -156216.95 247.737123 -156464.69 155178.461 1286.22499  8.2579041
 304000      .304  34465.2436 -192535.87  238.24803 -192774.12 227001.116 -34226.996 7.94160101
 304500     .3045  69262.6766  -225490.6 224.698619  -225715.3 294753.278 -69037.978 7.48995395
 305000      .305  102808.493 -254566.55 207.297634 -254773.85 357375.041  -102601.2 6.90992113
 305500     .3055  134562.666 -279306.33 186.931454 -279493.26 413868.993 -134375.73 6.23104847
 306000      .306  163972.451 -299293.34 164.549047 -299457.89 463265.791  -163807.9 5.48496822
 306500     .3065  190496.026 -314167.27 140.735106   -314308. 504663.294 -190355.29  4.6911702
 307000      .307  213637.605 -323647.99 115.622761 -323763.61 537285.596 -213521.98 3.85409202
 307500     .3075   232987.64 -327565.07 89.0109985 -327654.09 560552.714 -232898.63 2.96703328
 308000      .308  248249.128 -325879.31 60.8582039 -325940.16 574128.434 -248188.27  2.0286068
 308500     .3085  259217.622 -318667.36 31.7842848 -318699.15 577884.983 -259185.84 1.05947616
 309000      .309  265736.531 -306082.26 2.87951574 -306085.14 571818.794 -265733.65 .095983858
 309500     .3095  267685.126 -288336.48 -24.893089 -288311.59  556021.61 -267710.02 -.82976962
 310000       .31  264999.331 -265710.62 -51.008233 -265659.62 530709.955 -265050.34 -1.7002744
 310500     .3105  257698.554 -238567.01 -75.398784 -238491.61 496265.564 -257773.95 -2.5132928
 311000      .311  245913.658 -207366.58 -98.263854 -207268.32  453280.24 -246011.92 -3.2754618
 311500     .3115  229893.451 -172671.69 -119.55873 -172552.13 402565.141 -230013.01 -3.9852909
 312000      .312  209967.766  -135113.7 -138.65302 -134975.05  345081.47 -210106.42 -4.6217672
 312500     .3125  186500.822  -95348.91 -154.65863 -95194.251 281849.732 -186655.48 -5.1552875
 313000      .313  159881.255 -54041.877 -166.96402 -53874.913 213923.132 -160048.22 -5.5654675
 313500     .3135  130536.754 -11868.829 -175.43388 -11693.395 142405.583 -130712.19  -5.847796
 314000      .314  98951.7329 30475.3398 -180.36625  30655.706 68476.3931 -99132.099 -6.0122083
 314500     .3145  65682.5836 72268.7035 -182.23154 72450.9351 -6586.1199 -65864.815 -6.0743846
 315000      .315  31346.8549 112771.862 -181.18141 112953.043 -81425.007 -31528.036 -6.0393804
 315500     .3155  -3423.8899 151267.374 -176.86827 151444.243 -154691.26 3247.02158 -5.8956091
 316000      .316  -38026.647 187098.608 -168.85466 187267.463 -225125.26 37857.7924 -5.6284887
 316500     .3165  -71892.144  219679.13 -157.05553 219836.185 -291571.27 71735.0887 -5.2351842
 317000      .317   -104472.2 248486.794 -141.83946 248628.633 -352958.99  104330.36  -4.727982
 317500     .3175   -135225.5 273054.494 -123.92804 273178.423 -408279.99 135101.568 -4.1309346
 318000      .318  -163609.06  292961.88 -104.08057  293065.96 -456570.94 163504.975 -3.4693523
 318500     .3185  -189097.62 307847.042 -82.657088 307929.699 -496944.66 189014.961 -2.7552363
 319000      .319  -211229.61 317440.869 -59.589345 317500.458 -528670.47 211170.016 -1.9863115
 319500     .3195  -229636.75  321590.72 -34.823684 321625.544 -551227.47 229601.923 -1.1607895
 320000       .32  -244038.59 320255.827 -8.6610232 320264.488 -564294.42 244029.934 -.28870077
 320500     .3205  -254224.98 313491.801 18.2217954 313473.579 -567716.78 254243.199 .607393181
 321000      .321  -260038.12  301432.66 44.9208008  301387.74 -561470.78 260083.039 1.49736003
 321500     .3215  -261363.96 284277.088 70.6499787 284206.438 -545641.05 261434.607 2.35499929
 322000      .322  -258151.27 262295.788 95.0926994 262200.695 -520447.05 258246.359 3.16975665
 322500     .3225  -250446.95 235854.049 118.296772 235735.753   -486301. 250565.251 3.94322572
 323000      .323  -238407.23 205417.175 140.235354  205276.94 -443824.41  238547.47 4.67451179
 323500     .3235  -222278.81 171531.752 160.565229 171371.187 -393810.56 222439.372 5.35217428
 324000      .324  -202373.24 134800.613  178.66451 134621.948 -337173.85   202551.9 5.95548367
 324500     .3245  -179043.12 95857.4277 193.816795  95663.611 -274900.55 179236.939 6.46055982
 325000      .325   -152671.4  55349.704 205.557229 55144.1467  -208021.1 152876.956 6.85190763
 325500     .3255  -123687.02 13943.2825 213.915692 13729.3668  -137630.3 123900.931 7.13052307
 326000      .326  -92587.302 -27664.729 219.202856 -27883.932 -64922.573 92806.5052 7.30676188
 326500     .3265  -59932.814 -68752.915 221.602896 -68974.518 8820.10096  60154.417 7.38676319
 327000      .327  -26319.302 -108600.66 221.018705 -108821.68 82281.3563 26540.3209 7.36729017
 327500     .3275  7652.16231 -146515.14 217.150813 -146732.29 154167.303 -7435.0115 7.23836043
 328000      .328  41400.1793 -181855.73 209.704605 -182065.43 223255.907 -41190.475  6.9901535
 328500     .3285  74371.0957  -214045.8 198.710716 -214244.51 288416.898 -74172.385 6.62369054
 329000      .329  106023.294 -242563.99  184.65112 -242748.64 348587.284 -105838.64 6.15503732
 329500     .3295  135812.885 -266933.04 168.168474 -267101.21 402745.928 -135644.72 5.60561578
 330000       .33  163206.663 -286728.72 149.712269 -286878.43 449935.382 -163056.95 4.99040897
[...]

                   -649582.09 -630773.07 -528158.38 898210.085 892558.607 -863673.36 -2147.5168
Times of maxima :     .709466    .713094    .002974    .004076    .715051    .001945    .703326
             Random switching times for simulation number  296  :
                                   1  5.5801796E-02    2  5.4258744E-02    3  5.4176209E-02    4  1.0357663E-02    5  6.9853327E-01
                                   6  6.9869586E-01    7  6.9958808E-01

                   -643613.62  -621906.7 -528158.38 898210.085 880596.584 -863673.36 2095.47266
Times of maxima :     .709189    .014453    .002974    .004076    .715055    .001945    .015322
             Random switching times for simulation number  297  :
                                   1  5.6055230E-02    2  5.4163897E-02    3  5.4929744E-02    4  9.5205641E-03    5  7.0046628E-01
                                   6  6.9931070E-01    7  6.9985771E-01

                   -644945.43 -631459.37 -528158.38 898210.085 866173.697 -863673.36 2603.19309
Times of maxima :     .709262    .013676    .002974    .004076    .715054    .001945    .014661
             Random switching times for simulation number  298  :
                                   1  5.4402657E-02    2  5.4726493E-02    3  5.5809066E-02    4  1.1302849E-02    5  6.9999931E-01
                                   6  6.9999918E-01    7  7.0135056E-01

                   -661856.91 -626863.92 -528158.38 898210.085 873709.035 -863673.36 -2121.8433
Times of maxima :     .709234    .713073    .002974    .004076    .715053    .001945    .023174
             Random switching times for simulation number  299  :
                                   1  5.4359107E-02    2  5.5309833E-02    3  5.5354775E-02    4  9.7516764E-03    5  7.0067447E-01
                                   6  7.0174165E-01    7  7.0054964E-01

                   -640451.51 -635195.15 -528158.38 898210.085 902090.986 -863673.36 2478.88779
Times of maxima :     .709705     .01389    .002974    .004076    .715052    .001945     .01486
             Random switching times for simulation number  300  :
                                   1  5.6212631E-02    2  5.5400460E-02    3  5.4330646E-02    4  9.8967378E-03    5  7.0009595E-01
                                   6  7.0031249E-01    7  6.9985806E-01

                   -660940.61 -635131.55 -528158.38 898210.085 867099.362 -863673.36 2394.36396
Times of maxima :      .70943    .014025    .002974    .004076    .715053    .001945    .014955

 MAIN20 dumps OVER12 dice seed  SEEDSV =   3.0444871000000000E+09

Statistical output of  node  voltage   0.4287E+06 |              X0003AX0003BX0003C

1 ) -------------------------------------------------------------------------------------------------------------------------------
Statistical distribution of peak voltage at node  "X0003A".   The base voltage for per unit printout is  V-base = 4.28660705E+05
  Interval             voltage         voltage  in     Frequency    Cumulative               Per cent
    number         in per unit      physical units     (density)     frequency     .GE. current value
        28           1.4000000      6.00124987E+05             0             0          100.000000
        29           1.4500000      6.21558022E+05             7             7           97.666667
        30           1.5000000      6.42991058E+05            46            53           82.333333
        31           1.5500000      6.64424093E+05           184           237           21.000000
        32           1.6000000      6.85857128E+05            54           291            3.000000
        33           1.6500000      7.07290163E+05             3           294            2.000000
        34           1.7000000      7.28723199E+05             1           295            1.666667
        35           1.7500000      7.50156234E+05             3           298             .666667
        36           1.8000000      7.71589269E+05             0           298             .666667
        37           1.8500000      7.93022304E+05             0           298             .666667
        38           1.9000000      8.14455340E+05             2           300             .000000
Summary of preceding table follows:       Grouped data     Ungrouped data
                                 Mean = 1.52983333E+00     1.52930403E+00
                             Variance = 2.44311594E-03     2.30074869E-03
                   Standard deviation = 4.94278863E-02     4.79661202E-02

2 ) -------------------------------------------------------------------------------------------------------------------------------
Statistical distribution of peak voltage at node  "X0003B".   The base voltage for per unit printout is  V-base = 4.28660705E+05
  Interval             voltage         voltage  in     Frequency    Cumulative               Per cent
    number         in per unit      physical units     (density)     frequency     .GE. current value
        28           1.4000000      6.00124987E+05             0             0          100.000000
        29           1.4500000      6.21558022E+05            25            25           91.666667
        30           1.5000000      6.42991058E+05           258           283            5.666667
        31           1.5500000      6.64424093E+05            11           294            2.000000
        32           1.6000000      6.85857128E+05             3           297            1.000000
        33           1.6500000      7.07290163E+05             3           300             .000000
Summary of preceding table follows:       Grouped data     Ungrouped data
                                 Mean = 1.47516667E+00     1.47256791E+00
                             Variance = 6.27062430E-04     5.72032925E-04
                   Standard deviation = 2.50412146E-02     2.39172098E-02

3 ) -------------------------------------------------------------------------------------------------------------------------------
  SUMMARY   SUMMARY   SUMMARY   SUMMARY   SUMMARY   SUMMARY   SUMMARY   SUMMARY   SUMMARY   SUMMARY   SUMMARY   SUMMARY   SUMMARY
3 ) -------------------------------------------------------------------------------------------------------------------------------
The following is a distribution of peak overvoltages among all output nodes of the last data card that have the same base voltage.
This distribution is for the maximum of the peaks at all output nodes with  V-base = 4.28660705E+05
  Interval             voltage         voltage  in     Frequency    Cumulative               Per cent
    number         in per unit      physical units     (density)     frequency     .GE. current value
        29           1.4500000      6.21558022E+05             0             0          100.000000
        30           1.5000000      6.42991058E+05            46            46           84.666667
        31           1.5500000      6.64424093E+05           188           234           22.000000
        32           1.6000000      6.85857128E+05            54           288            4.000000
        33           1.6500000      7.07290163E+05             6           294            2.000000
        34           1.7000000      7.28723199E+05             1           295            1.666667
        35           1.7500000      7.50156234E+05             3           298             .666667
        36           1.8000000      7.71589269E+05             0           298             .666667
        37           1.8500000      7.93022304E+05             0           298             .666667
        38           1.9000000      8.14455340E+05             2           300             .000000
Summary of preceding table follows:       Grouped data     Ungrouped data
                                 Mean = 1.53316667E+00     1.53334132E+00
                             Variance = 2.26585842E-03     1.99547907E-03
                   Standard deviation = 4.76010338E-02     4.46707854E-02

Statistical output of branch voltage   0.4287E+06 |-1            X0003BX0003CX0003AX0003BX0003CX0003A

4 ) -------------------------------------------------------------------------------------------------------------------------------
Statistical distribution of peak voltage  for branch  "X0003A"  to  "X0003B".   Base voltage  for per unit output = 4.28660705E+05
  Interval             voltage         voltage  in     Frequency    Cumulative               Per cent
    number         in per unit      physical units     (density)     frequency     .GE. current value
        37           1.8500000      7.93022304E+05             0             0          100.000000
        38           1.9000000      8.14455340E+05             2             2           99.333333
        39           1.9500000      8.35888375E+05             7             9           97.000000
        40           2.0000000      8.57321410E+05             0             9           97.000000
        41           2.0500000      8.78754445E+05           176           185           38.333333
        42           2.1000000      9.00187481E+05           102           287            4.333333
        43           2.1500000      9.21620516E+05             7           294            2.000000
        44           2.2000000      9.43053551E+05             4           298             .666667
        45           2.2500000      9.64486586E+05             2           300             .000000
Summary of preceding table follows:       Grouped data     Ungrouped data
                                 Mean = 2.04433333E+00     2.04851332E+00
                             Variance = 1.66510591E-03     1.24467597E-03
                   Standard deviation = 4.08057093E-02     3.52799655E-02

5 ) -------------------------------------------------------------------------------------------------------------------------------
  SUMMARY   SUMMARY   SUMMARY   SUMMARY   SUMMARY   SUMMARY   SUMMARY   SUMMARY   SUMMARY   SUMMARY   SUMMARY   SUMMARY   SUMMARY
5 ) -------------------------------------------------------------------------------------------------------------------------------
A distribution of peak values among all output branches of the last data card that have the same base value follows.  This
statistical distribution is for the maximum of the peaks at all of these output branches having base  voltage  = 4.28660705E+05
  Interval             voltage         voltage  in     Frequency    Cumulative               Per cent
    number         in per unit      physical units     (density)     frequency     .GE. current value
        41           2.0500000      8.78754445E+05             0             0          100.000000
        42           2.1000000      9.00187481E+05           287           287            4.333333
        43           2.1500000      9.21620516E+05             7           294            2.000000
        44           2.2000000      9.43053551E+05             4           298             .666667
        45           2.2500000      9.64486586E+05             2           300             .000000
Summary of preceding table follows:       Grouped data     Ungrouped data
                                 Mean = 2.07850000E+00     2.09772667E+00
                             Variance = 3.30518395E-04     2.02578046E-04
                   Standard deviation = 1.81801649E-02     1.42329915E-02

Blank card ends statistical tabulation requests.  |BLANK STATISTICS

                                      Sample curve symbols : "A", "B", and "C"
                                      Theoretical curve symbol : "*"
                                      Common curve symbol : "X"

        Switch  "X0001B"  to  "X0002B"            Switch  "X0001A"  to  "X0002A"            Switch  "X0001C"  to  "X0002C"
1.32420000E+00   switchings per column          1.32420000E+00   switchings per column     1.32420000E+00   switchings per column
              Columns                                     Columns                                     Columns
          5   10   15   20   25   30                5   10   15   20   25   30                5   10   15   20   25   30
     +----+----+----+----+----+----+           +----+----+----+----+----+----+           +----+----+----+----+----+----+
    X                                         X                                         X
    X                                         X                                         X
    X                                         X                                         X
    *A                                        X                                         X
    |*A                                       B*                                        |*C
    |A*                                       | X                                       | X
    |   X                                     | B *                                     |   *  C
    |       X                                 |       X                                 |     C *
    |      A    *                             |           *B                            |       C   *
    |                 * A                     |                 *    B                  |                 *  C
    |                       *     A           |                       X                 |                       *    C
    |                      A    *             |                           *   B         |                    C      *
    |  5.5000E-02                 *     A     |  5.5000E-02              B  *           |  5.5000E-02                 *     C
    |                           *      A      |                         B *             |                         C *
    |                  A    *                 |                       * B               |                       *     C
    |               A *                       |                B*                       |            C    *
    |         A *                             |          B*                             |        C  *
    |       * A                               |       X                                 |       *  C
    |  A*                                     |   X                                     | C *
    | *A                                      | X                                       | X
    |X                                        |X                                        |*C
    X                                         *B                                        X
    X                                         X                                         X
    X                                         X                                         *C
    X                                         X                                         X
   Time (scale = 3.33333333E-04  Sec/line)   Time (scale = 3.33333333E-04  Sec/line)   Time  (scale = 3.33333333E-04  Sec/line)

        Switch  "X0003C"  to  "XX0009"            Switch  "X0001B"  to  "X0002B"            Switch  "X0001A"  to  "X0002A"
1.32420000E+00   switchings per column          1.32420000E+00   switchings per column     1.32420000E+00   switchings per column
              Columns                                     Columns                                     Columns
          5   10   15   20   25   30                5   10   15   20   25   30                5   10   15   20   25   30
     +----+----+----+----+----+----+           +----+----+----+----+----+----+           +----+----+----+----+----+----+
    X                                         X                                         X
    X                                         X                                         X
    X                                         X                                         X
    *A                                        X                                         * C
    |X                                        |X                                        |*C
    | *A                                      | X                                       | X
    |  A*                                     |  B*                                     |   X
    |      A*                                 |    B  *                                 |     C *
    |         A *                             |           *  B                          |          C*
    |                 * A                     |                B*                       |                 X
    |                       *     A           |                       *    B            |                       X
    |                           *    A        |                           *B            |                           * C
    |  1.0000E-02                 *A          |  7.0000E-01                 *   B       |  7.0000E-01                C*
    |                           *   A         |                           *  B          |                           *  C
    |                A      *                 |                   B   *                 |                    C  *
    |                 * A                     |            B    *                       |                 X
    |           X                             |         B *                             |           * C
    |     A *                                 |     B *                                 |       X
    A   *                                     |   *  B                                  |   *C
    A *                                       | X                                       C *
    A*                                        |*B                                       |*C
    *A                                        *B                                        X
    X                                         X                                         X
    X                                         *B                                        X
    X                                         X                                         X
   Time (scale = 3.33333333E-04  Sec/line)   Time (scale = 3.33333333E-04  Sec/line)   Time  (scale = 3.33333333E-04  Sec/line)

   Switch  "X0001C"  to  "X0002C"
     1.32420000E+00   switchings per column
              Columns
          5   10   15   20   25   30
     +----+----+----+----+----+----+
    X
    X
    *A
    X
    |X
    |A*
    | A *
    |       X
    |           *    A
    |          A      *
    |                       *    A
    |                         A *
    |  7.0000E-01                A*
    |                          A*
    |                       X
    |                 *  A
    |           *       A
    |    A  *
    |   X
    A *
    A*
    *A
    X
    *A
    X
   Time (scale = 3.33333333E-04  Sec/line)
 .... Questionable Kolmogorov-Smirnov test result = 4.79983461E-01
 .... Questionable Kolmogorov-Smirnov test result = 8.61125218E-01
 .... Questionable Kolmogorov-Smirnov test result = 6.22920778E-01
 .... Questionable Kolmogorov-Smirnov test result = 8.70941508E-02
 .... Questionable Kolmogorov-Smirnov test result = 7.08509700E-01
 .... Questionable Kolmogorov-Smirnov test result = 9.61921384E-01
 .... Questionable Kolmogorov-Smirnov test result = 7.92096056E-01

Actual List Sizes for the preceding solution follow.       11-Nov-18  11.00.00
   Size  1-10:    27    26    38     3   138    13    42  5310     0     0
   Size 11-20:     0     7 -9999 -9999 -9999     0     0     0    23  2972
   Size 21-30:    36   180 14771     0 -9999     9 -9999 -9999 -9999     0
Seconds for overlays  1-5  :     0.000     0.000     0.000  -- (CP: Wait; Real)
Seconds for overlays  6-11 :     0.000     0.000     0.000
Seconds for overlays 12-15 :     0.000     0.000     0.000
Seconds for time-step loop :     0.000     0.000     0.000
Seconds after DELTAT-loop  :     0.000     0.000     0.000
                               ---------------------------
                   Totals  :     0.000     0.000     0.000

